Circuit: * C:\Users\Vien\Documents\LTspice_Projects\180nm_IC_Design_Example\Draft4.asc

WARNING: Less than two connections to node N001.  This node is used by V1.
Direct Newton iteration for .op point succeeded.

Date: Sat May 07 00:05:09 2022
Total elapsed time: 0.473 seconds.

tnom = 27
temp = 27
method = modified trap
totiter = 30491
traniter = 30488
tranpoints = 15245
accept = 12006
rejected = 3239
matrix size = 5
fillins = 0
solver = Normal
Matrix Compiler1:       6 opcodes  0.0/[0.0]/0.0
Matrix Compiler2: 247 bytes object code size  0.0/0.1/[0.0]

