Circuit: * C:\Users\Vien\Documents\LTspice_Projects\45MHz_LPF.asc

.OP point found by inspection.

Date: Fri Jan 12 14:07:53 2024
Total elapsed time: 0.321 seconds.

tnom = 27
temp = 27
method = modified trap
totiter = 7660
traniter = 7660
tranpoints = 3831
accept = 3032
rejected = 799
matrix size = 10
fillins = 0
solver = Normal
Matrix Compiler1: off  [0.1]/0.1/0.2
Matrix Compiler2: off  [0.1]/0.2/0.1

