Circuit: * C:\Users\Vien\Documents\LTspice_Projects\80MHz_LPF.asc


Date: Mon Dec 04 17:50:15 2023
Total elapsed time: 0.111 seconds.

tnom = 27
temp = 27
method = trap
totiter = 0
traniter = 0
tranpoints = 0
accept = 0
rejected = 0
matrix size = 5
fillins = 0
solver = Normal

