Questionable use of curly braces in "b3 n001 0 v={v(phi_out_vco)+v(phi_noise_vco)}"
    Error: undefined symbol in: "[v](phi_out_vco)+v(phi_noise_vco)"
Questionable use of curly braces in "b1 0 pn_adf4371_vco i={v(10db_per_dec)}"
    Error: undefined symbol in: "[v](10db_per_dec)"
Circuit: * C:\Users\Vien\Documents\LTspice_Projects\ADF4371_Phase_Noise_Sims\ADF4371_Freq_Synth_AC_Model.asc

G2: Trouble evaluating Laplacian at DC.
ERROR: Node PHI_OUT_VCO is floating and connected to current source G_VCO
WARNING: Node N002 is floating.
WARNING: Node N003 is floating.
WARNING: Node N005 is floating.

WARNING: Less than two connections to node REF_MULT.  This node is used by E1.
WARNING: Less than two connections to node PHI_OUT.  This node is used by E2.
.OP point found by inspection.

Date: Sun Nov 20 23:40:55 2022
Total elapsed time: 0.074 seconds.

tnom = 27
temp = 27
method = trap
totiter = 0
traniter = 0
tranpoints = 0
accept = 0
rejected = 0
matrix size = 24
fillins = 10
solver = Normal

