Questionable use of curly braces in "b3 phi_out_vco_plus_noise2 0 v={v(phi_out_vco2)+v(phi_noise_vco2)}"
    Error: undefined symbol in: "[v](phi_out_vco2)+v(phi_noise_vco2)"
Questionable use of curly braces in "b1 0 pn_adf4351_vco i={v(10db_per_dec)}"
    Error: undefined symbol in: "[v](10db_per_dec)"
Questionable use of curly braces in "b2 phi_out_vco_plus_noise1 0 v={v(phi_out_vco1)+v(phi_noise_vco1)}"
    Error: undefined symbol in: "[v](phi_out_vco1)+v(phi_noise_vco1)"
Circuit: * C:\Users\Vien\Documents\LTspice_Projects\ADF4371_Phase_Noise_Sims\ADF5355_Freq_Synth_AC_Model.asc

G2: Trouble evaluating Laplacian at DC.
ERROR: Node PHI_OUT_VCO2 is floating and connected to current source G_VCO
WARNING: Node N002 is floating.
WARNING: Node N003 is floating.
WARNING: Node N004 is floating.
ERROR: Node PHI_OUT_VCO1 is floating and connected to current source G_VCO1
WARNING: Node N001 is floating.

WARNING: Less than two connections to node REF_MULT.  This node is used by E1.
WARNING: Less than two connections to node PHI_OUT2.  This node is used by E2.
WARNING: Less than two connections to node PHI_OUT1.  This node is used by E3.
.OP point found by inspection.

Date: Fri Dec 16 23:18:01 2022
Total elapsed time: 0.110 seconds.

tnom = 27
temp = 27
method = trap
totiter = 0
traniter = 0
tranpoints = 0
accept = 0
rejected = 0
matrix size = 36
fillins = 17
solver = Normal

