Questionable use of curly braces in "b1 phase_noise_out n002 v={v(1_over_f_cubed)+v(1_over_f_squared)}"
    Error: undefined symbol in: "[v](1_over_f_cubed)+v(1_over_f_squared)"
Questionable use of curly braces in "b2 n002 0 v={v(1_over_f)+v(wideband)}"
    Error: undefined symbol in: "[v](1_over_f)+v(wideband)"
Circuit: * C:\Users\Vien\Documents\LTspice_Projects\ADF4371_Phase_Noise_Sims\CVSS_945_XL_10_Phase_Noise_Model.asc

G3: Trouble evaluating Laplacian at DC.
G2: Trouble evaluating Laplacian at DC.
ERROR: Node 1_OVER_F_CUBED is floating and connected to current source G2
ERROR: Node 1_OVER_F_SQUARED is floating and connected to current source G1

WARNING: Less than two connections to node PHASE_NOISE_OUT.  This node is used by B1.
.OP point found by inspection.

Date: Tue Sep 14 00:07:22 2021
Total elapsed time: 0.038 seconds.

tnom = 27
temp = 27
method = trap
totiter = 0
traniter = 0
tranpoints = 0
accept = 0
rejected = 0
matrix size = 12
fillins = 2
solver = Normal

