Circuit: * C:\Users\Vien\Documents\LTspice_Projects\ADF4371_Phase_Noise_Sims\Discrete_VCO.asc

WARNING: Less than two connections to node OUT_DIFF.  This node is used by E1.
Direct Newton iteration for .op point succeeded.
Heightened Def Con from 1.101e-008 +++++to 1.101e-008
Heightened Def Con from 1.101e-008 to 1.101e-008

Date: Sun Nov 27 18:38:16 2022
Total elapsed time: 19.183 seconds.

tnom = 27
temp = 27
method = modified trap
totiter = 2006611
traniter = 2006606
tranpoints = 1000064
accept = 1000039
rejected = 32
matrix size = 46
fillins = 60
solver = Normal
Thread vector: 4.0/3.3[2] 3.7/2.6[2] 0.3/0.6[1] 0.3/1.6[1]  2592/500
Matrix Compiler1:     452 opcodes  1.1/[0.5]/0.8
Matrix Compiler2: off  [0.4]/0.4/0.6

