Circuit: * C:\Users\Vien\Documents\LTspice_Projects\ADF4371_Phase_Noise_Sims\Draft3.asc

Questionable use of curly braces in "b1 phase_noise_out n003 v={v(1_over_f_cubed)+v(1_over_f_squared)}"
    Error: undefined symbol in: "[v](1_over_f_cubed)+v(1_over_f_squared)"
Questionable use of curly braces in "b2 n003 0 v={v(1_over_f)+v(wideband)}"
    Error: undefined symbol in: "[v](1_over_f)+v(wideband)"
x1:g3: Trouble evaluating Laplacian at DC.
x1:g2: Trouble evaluating Laplacian at DC.
ERROR: Node X1:1_OVER_F_CUBED is floating and connected to current source G:X1:2
ERROR: Node X1:1_OVER_F_SQUARED is floating and connected to current source G:X1:1

WARNING: Less than two connections to node PN_VCO.  This node is used by B:X1:1.
.OP point found by inspection.

Date: Tue Sep 14 00:20:52 2021
Total elapsed time: 0.035 seconds.

tnom = 27
temp = 27
method = trap
totiter = 0
traniter = 0
tranpoints = 0
accept = 0
rejected = 0
matrix size = 12
fillins = 2
solver = Normal

