Questionable use of curly braces in "b1 0 1_over_f_cubed i={v(10db_per_dec)}"
    Error: undefined symbol in: "[v](10db_per_dec)"
Questionable use of curly braces in "b2 vco_pn 0 v={v(1_over_f_squared)+v(1_over_f_cubed)}"
    Error: undefined symbol in: "[v](1_over_f_squared)+v(1_over_f_cubed)"
Circuit: * C:\Users\Vien\Documents\LTspice_Projects\ADF4371_Phase_Noise_Sims\Example_ABLNO_100MHZ_VCXO_Phase_Noise.asc

G2: Trouble evaluating Laplacian at DC.
WARNING: Node N002 is floating.
ERROR: Node 1_OVER_F_CUBED is floating and connected to current source B1
WARNING: Node N001 is floating.

WARNING: Less than two connections to node VCO_PN.  This node is used by B2.
.OP point found by inspection.

Date: Sun Dec 18 12:45:04 2022
Total elapsed time: 0.074 seconds.

tnom = 27
temp = 27
method = trap
totiter = 0
traniter = 0
tranpoints = 0
accept = 0
rejected = 0
matrix size = 10
fillins = 2
solver = Normal

