Questionable use of curly braces in "b1 0 pn_adf4371_vco i={v(10db_per_dec)}"
    Error: undefined symbol in: "[v](10db_per_dec)"
Circuit: * C:\Users\Vien\Documents\LTspice_Projects\ADF4371_Phase_Noise_Sims\Example_Ref_TCXO_Phase_Noise_Model.asc

G2: Trouble evaluating Laplacian at DC.
WARNING: Node N002 is floating.
WARNING: Node N001 is floating.

.OP point found by inspection.

Date: Sat Dec 17 19:50:53 2022
Total elapsed time: 0.073 seconds.

tnom = 27
temp = 27
method = trap
totiter = 0
traniter = 0
tranpoints = 0
accept = 0
rejected = 0
matrix size = 8
fillins = 1
solver = Normal

