Questionable use of curly braces in "b1 freq_in 0 v={i(cdiff_in)}"
    Error: undefined symbol in: "[i](cdiff_in)"
Questionable use of curly braces in "b2 freq_out 0 v={i(cdiff_out)}"
    Error: undefined symbol in: "[i](cdiff_out)"
Questionable use of curly braces in "b3 phi_out 0 v={v(phi_out_vco)+v(phi_noise_vco)}"
    Error: undefined symbol in: "[v](phi_out_vco)+v(phi_noise_vco)"
Questionable use of curly braces in "b4 n002 0 v={v(vfilt)+v(vinj_vco)}"
    Error: undefined symbol in: "[v](vfilt)+v(vinj_vco)"
Circuit: * C:\Users\Vien\Documents\LTspice_Projects\ADF4371_Phase_Noise_Sims\HMC1031_10MHz_PLL.asc

x2:g3: Trouble evaluating Laplacian at DC.
x2:g2: Trouble evaluating Laplacian at DC.
x1:g3: Trouble evaluating Laplacian at DC.
x1:g2: Trouble evaluating Laplacian at DC.
ERROR: Node PHI_OUT_VCO is floating and connected to current source G_VCO
WARNING: Node N003 is floating.
ERROR: Node X1:1_OVER_F_CUBED is floating and connected to current source G:X1:2
ERROR: Node X1:1_OVER_F_SQUARED is floating and connected to current source G:X1:1
ERROR: Node X2:1_OVER_F_CUBED is floating and connected to current source G:X2:2
ERROR: Node X2:1_OVER_F_SQUARED is floating and connected to current source G:X2:1

WARNING: Less than two connections to node FREQ_IN.  This node is used by B1.
WARNING: Less than two connections to node FREQ_OUT.  This node is used by B2.
WARNING: Less than two connections to node NC_01.  This node is used by V2.
.OP point found by inspection.

Date: Tue Nov 16 23:23:07 2021
Total elapsed time: 0.167 seconds.

tnom = 27
temp = 27
method = trap
totiter = 0
traniter = 0
tranpoints = 0
accept = 0
rejected = 0
matrix size = 44
fillins = 16
solver = Normal

