Questionable use of curly braces in "b3 phi_out_vco_plus_noise2 0 v={v(phi_out_vco2)+v(phi_noise_vco2)}"
    Error: undefined symbol in: "[v](phi_out_vco2)+v(phi_noise_vco2)"
Questionable use of curly braces in "b1 0 30db_per_dec i={v(10db_per_dec)}"
    Error: undefined symbol in: "[v](10db_per_dec)"
Questionable use of curly braces in "b2 phi_out_vco_plus_noise1 0 v={v(phi_out_vco1)+v(phi_noise_vco1)}"
    Error: undefined symbol in: "[v](phi_out_vco1)+v(phi_noise_vco1)"
Questionable use of curly braces in "b4 0 1_over_f_cubed_ref i={v(10db_per_dec_ref)}"
    Error: undefined symbol in: "[v](10db_per_dec_ref)"
Questionable use of curly braces in "b5 pn_100mhz_ref 0 v={v(1_over_f_squared_ref)+v(1_over_f_cubed_ref)}"
    Error: undefined symbol in: "[v](1_over_f_squared_ref)+v(1_over_f_cubed_ref)"
Questionable use of curly braces in "b6 pn_lmx2595_vco 0 v={v(flat)+v(30db_per_dec)}"
    Error: undefined symbol in: "[v](flat)+v(30db_per_dec)"
Circuit: * C:\Users\Vien\Documents\LTspice_Projects\ADF4371_Phase_Noise_Sims\LMX2595_Freq_Synth_AC_Model.asc

G3: Trouble evaluating Laplacian at DC.
G2: Trouble evaluating Laplacian at DC.
ERROR: Node PHI_OUT_VCO2 is floating and connected to current source G_VCO
WARNING: Node N002 is floating.
ERROR: Node 30DB_PER_DEC is floating and connected to current source B1
ERROR: Node PHI_OUT_VCO1 is floating and connected to current source G_VCO1
WARNING: Node N001 is floating.
ERROR: Node 1_OVER_F_CUBED_REF is floating and connected to current source B4
WARNING: Node N003 is floating.
WARNING: Node N004 is floating.

WARNING: Less than two connections to node REF_MULT.  This node is used by E1.
WARNING: Less than two connections to node PHI_OUT2.  This node is used by E2.
WARNING: Less than two connections to node PHI_OUT1.  This node is used by E3.
.OP point found by inspection.

Date: Thu Oct 26 15:37:08 2023
Total elapsed time: 0.140 seconds.

tnom = 27
temp = 27
method = trap
totiter = 0
traniter = 0
tranpoints = 0
accept = 0
rejected = 0
matrix size = 44
fillins = 26
solver = Normal

