Questionable use of curly braces in "b3 phi_out_vco_plus_noise2 0 v={v(phi_out_vco2)+v(phi_noise_vco2)}"
    Error: undefined symbol in: "[v](phi_out_vco2)+v(phi_noise_vco2)"
Questionable use of curly braces in "b1 0 30db_per_dec i={v(10db_per_dec)}"
    Error: undefined symbol in: "[v](10db_per_dec)"
Questionable use of curly braces in "b2 phi_out_vco_plus_noise1 0 v={v(phi_out_vco1)+v(phi_noise_vco1)}"
    Error: undefined symbol in: "[v](phi_out_vco1)+v(phi_noise_vco1)"
Questionable use of curly braces in "b4 0 1_over_f_cubed_ref i={v(10db_per_dec_ref)}"
    Error: undefined symbol in: "[v](10db_per_dec_ref)"
Questionable use of curly braces in "b5 pn_100mhz_ref 0 v={v(1_over_f_squared_ref)+v(1_over_f_cubed_ref)}"
    Error: undefined symbol in: "[v](1_over_f_squared_ref)+v(1_over_f_cubed_ref)"
Questionable use of curly braces in "b6 pn_lmx2595_vco 0 v={v(flat)+v(30db_per_dec)}"
    Error: undefined symbol in: "[v](flat)+v(30db_per_dec)"
LTspice 24.0.9 for Windows
Circuit: * C:\Users\Vien\Documents\LTspice_Projects\ADF4371_Phase_Noise_Sims\LMX2595_Freq_Synth_AC_Stability_Model.asc
Start Time: Sat May 18 20:17:48 2024
solver = Normal
Maximum thread count: 16
tnom = 27
temp = 27
method = modified trap
g2: Trouble evaluating Laplacian at DC.
g3: Trouble evaluating Laplacian at DC.
ERROR: Node PHI_OUT_VCO2 is floating and connected to current source G_VCO
WARNING: Node N007 is floating.
ERROR: Node 30DB_PER_DEC is floating and connected to current source B1
ERROR: Node PHI_OUT_VCO1 is floating and connected to current source G_VCO1
WARNING: Node VTUNE1 is floating.
ERROR: Node 1_OVER_F_CUBED_REF is floating and connected to current source B4
WARNING: Node N008 is floating.
WARNING: Node N009 is floating.

WARNING: Less than two connections to node ref_mult.  This node is used by e1.
WARNING: Less than two connections to node phi_out2.  This node is used by e2.
WARNING: Less than two connections to node phi_out1.  This node is used by e3.
.OP point found by inspection.
Ignoring empty pin current: Ix(u1:1)
Ignoring empty pin current: Ix(u1:2)
Ignoring empty pin current: Ix(u2:1)
Ignoring empty pin current: Ix(u2:2)
Ignoring empty pin current: Ix(u1:1)
Ignoring empty pin current: Ix(u1:2)
Ignoring empty pin current: Ix(u2:1)
Ignoring empty pin current: Ix(u2:2)
Total elapsed time: 0.393 seconds.

