Circuit: * C:\Users\Vien\Documents\LTspice_Projects\ADF4371_Phase_Noise_Sims\Loop_Filter_Sim.asc

Direct Newton iteration failed to find .op point.  (Use ".option noopiter" to skip.)
Starting Gmin stepping
Gmin = 10
Gmin = 1.07374
Gmin = 0.115292
Gmin = 0.0123794
Gmin = 0.00132923
Gmin = 0.000142725
Gmin = 1.5325e-005
Gmin = 1.6455e-006
Gmin = 1.76685e-007
Gmin = 1.89714e-008
Gmin = 2.03704e-009
Gmin = 2.18725e-010
Gmin = 2.34854e-011
Gmin = 2.52173e-012
Gmin = 2.70769e-013
Gmin = 0
Gmin stepping succeeded in finding the operating point.


Date: Mon Oct 09 16:49:31 2023
Total elapsed time: 0.114 seconds.

tnom = 27
temp = 27
method = trap
totiter = 492
traniter = 0
tranpoints = 0
accept = 0
rejected = 0
matrix size = 53
fillins = 28
solver = Normal
Matrix Compiler1:     286 opcodes
Matrix Compiler2: 6.10 KB object code size  0.4/0.7/[0.4]

