Circuit: * C:\Users\Vien\Documents\LTspice_Projects\ADF4371_Phase_Noise_Sims\Type_II_PFD_Sim_Transient.asc

WARNING: Less than two connections to node N008.  This node is used by E1.
Direct Newton iteration for .op point succeeded.
Ignoring empty pin current: Ix(u1:1)
Ignoring empty pin current: Ix(u1:2)
Ignoring empty pin current: Ix(u2:1)
Ignoring empty pin current: Ix(u2:2)
Ignoring empty pin current: Ix(u1:1)
Ignoring empty pin current: Ix(u1:2)
Ignoring empty pin current: Ix(u2:1)
Ignoring empty pin current: Ix(u2:2)

Date: Tue Dec 06 10:26:22 2022
Total elapsed time: 0.065 seconds.

tnom = 27
temp = 27
method = modified trap
totiter = 6493
traniter = 6471
tranpoints = 1911
accept = 1713
rejected = 198
matrix size = 20
fillins = 6
solver = Normal
Matrix Compiler1: 896 bytes object code size  0.2/0.1/[0.1]
Matrix Compiler2: 1.39 KB object code size  0.1/0.1/[0.1]

