Circuit: * C:\Users\Vien\Documents\LTspice_Projects\Interview_Question_Circuits\I2C_Active_Device_Detector.asc

Direct Newton iteration failed to find .op point.  (Use ".option noopiter" to skip.)
Starting Gmin stepping
Gmin = 10
Gmin = 1.07374
Gmin = 0.115292
Gmin = 0.0123794
Gmin = 0.00132923
Gmin = 0.000142725
Gmin = 1.5325e-005
vernier = 0.5
Gmin = 3.1742e-006
vernier = 0.666667
vernier = 0.888888
Gmin = 7.23345e-007
vernier = 1
Gmin = 8.6905e-008
Gmin = 9.33136e-009
Gmin = 1.00195e-009
Gmin = 1.07583e-010
Gmin = 1.15517e-011
Gmin = 1.24035e-012
Gmin = 1.33182e-013
Gmin = 0
Gmin stepping succeeded in finding the operating point.

Ignoring empty pin current: Ix(u1:4)
Ignoring empty pin current: Ix(u1:4)

Date: Thu Jan 04 23:21:00 2024
Total elapsed time: 1.040 seconds.

tnom = 27
temp = 27
method = modified trap
totiter = 100753
traniter = 100152
tranpoints = 30680
accept = 23740
rejected = 6940
matrix size = 44
fillins = 26
solver = Normal
Thread vector: 8.2/5.3[2] 2.8/2.1[2] 1.0/1.0[1] 0.2/0.8[1]  2592/500
Matrix Compiler1: 3.47 KB object code size  0.7/0.3/[0.2]
Matrix Compiler2: 4.34 KB object code size  0.3/0.5/[0.2]

