Circuit: * C:\Users\Vien\Documents\LTspice_Projects\LT8330_Cascode_Boost_Converter\70V_LT8330_Cascode_Boost_Converter.asc

WARNING: Node NC_03 is floating.

WARNING: Less than two connections to node NC_03.  This node is used by C6.
Direct Newton iteration failed to find .op point.  (Use ".option noopiter" to skip.)
Starting Gmin stepping
Gmin = 10
Gmin = 1.07374
Gmin = 0.115292
Gmin = 0.0123794
Gmin = 0.00132923
Gmin = 0.000142725
Gmin = 1.5325e-005
Gmin = 1.6455e-006
Gmin = 1.76685e-007
Gmin = 1.89714e-008
Gmin = 2.03704e-009
Gmin = 2.18725e-010
Gmin = 2.34854e-011
Gmin = 2.52173e-012
Gmin = 2.70769e-013
Gmin = 0
Gmin stepping succeeded in finding the operating point.

Ignoring empty pin current: Ix(u3:2)
Ignoring empty pin current: Ix(u3:4)
Ignoring empty pin current: Ix(u3:2)
Ignoring empty pin current: Ix(u3:4)
Changing Tseed to 9.76562e-009
Changing Tseed to 9.76563e-011
Heightened Def Con from 0.02491 to 0.02491

Date: Sat Apr 09 17:58:47 2022
Total elapsed time: 203.228 seconds.

tnom = 27
temp = 27
method = modified trap
totiter = 41456756
traniter = 41456357
tranpoints = 10189793
accept = 7451473
rejected = 2738319
matrix size = 47
fillins = 4
solver = Normal
Matrix Compiler1: 1.68 KB object code size  0.3/0.2/[0.1]
Matrix Compiler2: 2.75 KB object code size  0.3/0.3/[0.2]

