Circuit: * C:\Users\Vien\Documents\LTspice_Projects\High_Side_Gate_Driver\Draft1.asc

.OP point found by inspection.

Date: Thu Nov 09 18:08:06 2023
Total elapsed time: 0.090 seconds.

tnom = 27
temp = 27
method = modified trap
totiter = 7660
traniter = 7660
tranpoints = 3831
accept = 3032
rejected = 799
matrix size = 10
fillins = 0
solver = Normal
Matrix Compiler1:      24 opcodes  0.2/[0.1]/0.1
Matrix Compiler2: off  [0.1]/0.2/0.1

