Circuit: * C:\Users\Vien\Documents\LTspice_Projects\3V3_Low_Noise_LDO\Tx_Schematic.asc

Early termination of direct N-R iteration.
Direct Newton iteration failed to find .op point.  (Use ".option noopiter" to skip.)
Starting Gmin stepping
Gmin = 10
Gmin = 1.07374
Gmin = 0.115292
Gmin = 0.0123794
Gmin = 0.00132923
Gmin = 0.000142725
Gmin = 1.5325e-005
Gmin = 1.6455e-006
Gmin = 1.76685e-007
Gmin = 1.89714e-008
Gmin = 2.03704e-009
Gmin = 2.18725e-010
Gmin = 2.34854e-011
Gmin = 2.52173e-012
Gmin = 2.70769e-013
Gmin = 0
Gmin stepping succeeded in finding the operating point.

Heightened Def Con from 4.75585e-006 to 4.75585e-006

Date: Sun Sep 12 14:07:16 2021
Total elapsed time: 9.567 seconds.

tnom = 27
temp = 27
method = modified trap
totiter = 493966
traniter = 493610
tranpoints = 204800
accept = 142340
rejected = 62461
matrix size = 88
fillins = 127
solver = Normal
Thread vector: 9.9/7.7[5] 4.8/3.5[5] 2.0/1.6[3] 0.3/1.5[1]  2592/500
Matrix Compiler1: 16.91 KB object code size  2.2/1.0/[0.9]
Matrix Compiler2: 10.71 KB object code size  0.8/1.0/[0.6]

