Circuit: * C:\Users\Vien\Documents\LTspice_Projects\PONSEP_High_Voltage_Simulation\Draft1.asc


Date: Wed Apr 14 16:49:00 2021
Total elapsed time: 0.051 seconds.

tnom = 27
temp = 27
method = trap
totiter = 0
traniter = 0
tranpoints = 0
accept = 0
rejected = 0
matrix size = 9
fillins = 11
solver = Normal

