Circuit: * C:\Users\Vien\Documents\LTspice_Projects\22V_4A_LTC3786_Boost_Converter\LTC3786_Boost_Converter.asc

Direct Newton iteration failed to find .op point.  (Use ".option noopiter" to skip.)
Starting Gmin stepping
Gmin = 10
Gmin = 1.07374
Gmin = 0.115292
Gmin = 0.0123794
Gmin = 0.00132923
Gmin = 0.000142725
Gmin = 1.5325e-005
Gmin = 1.6455e-006
Gmin = 1.76685e-007
Gmin = 1.89714e-008
Gmin = 2.03704e-009
Gmin = 2.18725e-010
Gmin = 2.34854e-011
Gmin = 2.52173e-012
Gmin = 2.70769e-013
Gmin = 0
Gmin stepping succeeded in finding the operating point.

Ignoring empty pin current: Ix(u1:3)
Ignoring empty pin current: Ix(u1:4)
Ignoring empty pin current: Ix(u1:8)
Ignoring empty pin current: Ix(u1:9)
Ignoring empty pin current: Ix(u1:10)
Ignoring empty pin current: Ix(u1:11)
Ignoring empty pin current: Ix(u1:12)
Ignoring empty pin current: Ix(u1:13)
Ignoring empty pin current: Ix(u1:14)
Ignoring empty pin current: Ix(u1:15)
Ignoring empty pin current: Ix(u1:16)
Ignoring empty pin current: Ix(u1:17)
Ignoring empty pin current: Ix(u1:18)
Ignoring empty pin current: Ix(u1:20)
Ignoring empty pin current: Ix(u1:21)
Ignoring empty pin current: Ix(u1:28)
Ignoring empty pin current: Ix(u1:3)
Ignoring empty pin current: Ix(u1:4)
Ignoring empty pin current: Ix(u1:8)
Ignoring empty pin current: Ix(u1:9)
Ignoring empty pin current: Ix(u1:10)
Ignoring empty pin current: Ix(u1:11)
Ignoring empty pin current: Ix(u1:12)
Ignoring empty pin current: Ix(u1:13)
Ignoring empty pin current: Ix(u1:14)
Ignoring empty pin current: Ix(u1:15)
Ignoring empty pin current: Ix(u1:16)
Ignoring empty pin current: Ix(u1:17)
Ignoring empty pin current: Ix(u1:18)
Ignoring empty pin current: Ix(u1:20)
Ignoring empty pin current: Ix(u1:21)
Ignoring empty pin current: Ix(u1:28)
Heightened Def Con from 0.00625437 to 0.00625437

Date: Thu Jun 18 15:04:27 2020
Total elapsed time: 126.240 seconds.

tnom = 27
temp = 27
method = modified trap
totiter = 6806548
traniter = 6806061
tranpoints = 2105464
accept = 1499140
rejected = 606325
matrix size = 136
fillins = 22
solver = Normal
Thread vector: 6.7/4.9[4] 4.7/7.5[1] 1.0/1.0[1] 0.2/0.4[1]  2592/500
Matrix Compiler1: 6.84 KB object code size  1.2/0.6/[0.5]
Matrix Compiler2: 9.66 KB object code size  0.7/1.1/[0.7]

