Circuit: * C:\Users\Vien\Documents\LTspice_Projects\SELICOM_II_LiFi_Simulations\Discrete_TIA.asc

Direct Newton iteration for .op point succeeded.

Date: Fri Mar 03 00:04:16 2023
Total elapsed time: 0.167 seconds.

tnom = 27
temp = 27
method = trap
totiter = 5
traniter = 0
tranpoints = 0
accept = 0
rejected = 0
matrix size = 17
fillins = 12
solver = Normal
Matrix Compiler1:     118 opcodes
Matrix Compiler2: 1.70 KB object code size
