Circuit: * C:\Users\Vien\Documents\LTspice_Projects\SELICOM_II_LiFi_Simulations\Draft2.asc

WARNING: Node NC_01 is floating.

WARNING: Less than two connections to node NC_01.  This node is used by C2.
Direct Newton iteration for .op point succeeded.
.step cpd=1e-012
.step cpd=2e-012
.step cpd=3e-012

Date: Fri Feb 03 16:35:53 2023
Total elapsed time: 0.178 seconds.

tnom = 27
temp = 27
method = trap
totiter = 8
traniter = 0
tranpoints = 0
accept = 0
rejected = 0
matrix size = 9
fillins = 0
solver = Normal
Matrix Compiler1:      27 opcodes
Matrix Compiler2: 647 bytes object code size
