Circuit: * C:\Users\Vien\Documents\LTspice_Projects\SELICOM_II_LiFi_Simulations\RE_5_Ohms_Tx_Schematic_Push_Pull.asc

Direct Newton iteration for .op point succeeded.

Date: Mon Sep 06 17:41:38 2021
Total elapsed time: 11.129 seconds.

tnom = 27
temp = 27
method = modified trap
totiter = 814889
traniter = 814876
tranpoints = 359544
accept = 250323
rejected = 109221
matrix size = 54
fillins = 41
solver = Normal
Matrix Compiler1: 5.57 KB object code size  0.7/0.4/[0.4]
Matrix Compiler2: 5.11 KB object code size  0.3/0.4/[0.3]

