Questionable use of curly braces in "b1 0 n005 i={1u*white(700meg*time)}"
    Error: undefined symbol in: "1u*[white](700meg*time)"
Circuit: * C:\Users\Vien\Documents\LTspice_Projects\SELICOM_II_LiFi_Simulations\Tx_Schematic.asc

Questionable use of curly braces in "b1 n018 0 v={abs(v(vin_diff))}"
    Error: undefined symbol in: "abs([v](vin_diff))"
WARNING: Less than two connections to node OUT_LIM_AMP.  This node is used by E3.
WARNING: Less than two connections to node N003.  This node is used by R12.
Direct Newton iteration failed to find .op point.  (Use ".option noopiter" to skip.)
Starting Gmin stepping
Gmin = 10
Gmin = 1.07374
Gmin = 0.115292
Gmin = 0.0123794
Gmin = 0.00132923
Gmin = 0.000142725
Gmin = 1.5325e-005
Gmin = 1.6455e-006
vernier = 0.5
Gmin = 3.40827e-007
vernier = 0.666667
vernier = 0.333333
vernier = 0.166667
vernier = 0.0833333
Gmin = 1.75866e-007
vernier = 0.111111
Gmin = 1.38329e-007
vernier = 0.148148
vernier = 0.197531
Gmin = 9.36367e-008
vernier = 0.263374
vernier = 0.351165
Gmin = 5.08087e-008
vernier = 0.46822
Gmin = 1.91795e-008
vernier = 0.624294
vernier = 0.832392
Gmin = 4.0789e-009
vernier = 1
Gmin = 4.8514e-010
Gmin = 5.20915e-011
Gmin = 5.59328e-012
Gmin = 6.00574e-013
Gmin = 0
Gmin stepping succeeded in finding the operating point.

Ignoring empty pin current: Ix(u3:vh)
Ignoring empty pin current: Ix(u3:vl)
Ignoring empty pin current: Ix(u3:vh)
Ignoring empty pin current: Ix(u3:vl)
Heightened Def Con from 9.76562e-014 to 2.00049e-010
Heightened Def Con from 8.02522e-007 to 8.02537e-007
Heightened Def Con from 8.82203e-007 to 8.82578e-007
Heightened Def Con from 1.05367e-006 +to 1.05367e-006
Heightened Def Con from 2.55392e-006 to 2.55393e-006
Heightened Def Con from 2.93246e-006 to 2.93248e-006
Heightened Def Con from 3.10218e-006 to 3.105e-006
Heightened Def Con from 3.11151e-006 to 3.11165e-006
Heightened Def Con from 4.74222e-006 to 4.74259e-006
Heightened Def Con from 4.82215e-006 to 4.82252e-006
Heightened Def Con from 5.09228e-006 to 5.09265e-006
Heightened Def Con from 5.18217e-006 to 5.18255e-006
Heightened Def Con from 5.70214e-006 +++to 5.71018e-006
Heightened Def Con from 5.87191e-006 to 5.87229e-006
Heightened Def Con from 6.70196e-006 to 6.70197e-006
Heightened Def Con from 7.13216e-006 to 7.13253e-006
Heightened Def Con from 7.72189e-006 ++to 7.72401e-006
Heightened Def Con from 7.72426e-006 ++++to 7.72464e-006
Heightened Def Con from 7.80214e-006 +++++to 7.81017e-006
Heightened Def Con from 8.31189e-006 to 8.31189e-006
Heightened Def Con from 8.39215e-006 to 8.39927e-006
Heightened Def Con from 8.4e-006 +to 8.40003e-006
Heightened Def Con from 8.63245e-006 to 8.63245e-006
Heightened Def Con from 8.73245e-006 to 8.73282e-006
Heightened Def Con from 8.81188e-006 to 8.81188e-006
Heightened Def Con from 9.07245e-006 to 9.07282e-006
Heightened Def Con from 9.22244e-006 to 9.22244e-006
Heightened Def Con from 9.51214e-006 to 9.51316e-006
Heightened Def Con from 9.56233e-006 to 9.56271e-006

Date: Wed Oct 12 23:50:32 2022
Total elapsed time: 12.865 seconds.

tnom = 25
temp = 27
method = modified trap
totiter = 455876
traniter = 454617
tranpoints = 137852
accept = 101869
rejected = 36028
matrix size = 270
fillins = 383
solver = Normal
Thread vector: 12.3/6.7[5] 7.6/3.1[5] 4.4/2.7[5] 0.8/2.9[1]  2592/500
Matrix Compiler1: 36.16 KB object code size  6.6/2.6/[2.1]
Matrix Compiler2: 30.33 KB object code size  3.1/3.3/[1.5]

