Circuit: * C:\Users\Vien\Documents\LTspice_Projects\SELICOM_II_LiFi_Simulations\Tx_Schematic_Simplified.asc

Direct Newton iteration for .op point succeeded.

Date: Fri Nov 04 13:45:59 2022
Total elapsed time: 1.913 seconds.

tnom = 27
temp = 27
method = modified trap
totiter = 121945
traniter = 121933
tranpoints = 45311
accept = 28469
rejected = 16842
matrix size = 137
fillins = 142
solver = Normal
Matrix Compiler1: 16.45 KB object code size  2.3/1.1/[0.9]
Matrix Compiler2: 14.20 KB object code size  0.9/1.2/[0.7]

