Circuit: * C:\Users\Vien\Documents\LTspice_Projects\TankMET_Transducer_Sims\SMATR400H99XDA_Ultrasonic_Transducer_Complete_Simulation_with_Rx.asc

WARNING: Less than two connections to node TX_PRE_LIA.  This node is used by E2.
WARNING: Less than two connections to node RX_PRE_LIA.  This node is used by E4.
WARNING: Less than two connections to node NC_05.  This node is used by R22.
Direct Newton iteration failed to find .op point.  (Use ".option noopiter" to skip.)
Starting Gmin stepping
Gmin = 10
Gmin = 1.07374
Gmin = 0.115292
Gmin = 0.0123794
Gmin = 0.00132923
Gmin = 0.000142725
Gmin = 1.5325e-005
Gmin = 1.6455e-006
vernier = 0.5
vernier = 0.25
vernier = 0.125
vernier = 0.0625
vernier = 0.03125
vernier = 0.015625
Gmin = 8.42498e-007
vernier = 0.0078125
vernier = 0.00390625
vernier = 0.00195313
vernier = 0.000976563
vernier = 0.00130208
Gmin = 8.41197e-007
vernier = 0.00173611
Gmin = 8.38009e-007
vernier = 0.00231481
vernier = 0.00308642
Gmin = 8.32813e-007
vernier = 0.00411522
vernier = 0.00548696
Gmin = 8.24647e-007
vernier = 0.00731595
Gmin = 8.11565e-007
vernier = 0.00975459
vernier = 0.0130061
Gmin = 7.90594e-007
vernier = 0.0173415
vernier = 0.023122
Gmin = 7.58487e-007
vernier = 0.0308293
Gmin = 7.09186e-007
vernier = 0.0411057
vernier = 0.0548076
Gmin = 6.35409e-007
vernier = 0.0730768
vernier = 0.0974357
Gmin = 5.34189e-007
vernier = 0.129914
Gmin = 4.03672e-007
vernier = 0.173219
vernier = 0.230959
Gmin = 2.5618e-007
vernier = 0.307945
vernier = 0.410593
Gmin = 1.25809e-007
vernier = 0.547457
Gmin = 4.06427e-008
vernier = 0.729942
vernier = 0.973256
Gmin = 6.80388e-009
vernier = 1
Gmin = 7.4241e-010
Gmin = 7.97157e-011
Gmin = 8.55941e-012
Gmin = 9.1906e-013
Gmin = 0
Gmin = 0
Gmin stepping succeeded in finding the operating point.

Ignoring empty pin current: Ix(u1:5)
Ignoring empty pin current: Ix(u1:5)

Date: Mon Aug 17 00:52:23 2020
Total elapsed time: 5.794 seconds.

tnom = 27
temp = 27
method = modified trap
totiter = 85046
traniter = 83289
tranpoints = 26157
accept = 18477
rejected = 7680
matrix size = 211
fillins = 183
solver = Normal
Thread vector: 80.2/27.5[14] 21.6/10.0[14] 7.0/4.9[7] 0.5/1.0[1]  2592/500
Matrix Compiler1: 19.88 KB object code size  5.5/3.5/[1.4]
Matrix Compiler2: 21.05 KB object code size  2.5/3.5/[1.1]

