Circuit: * C:\Users\Vien\Documents\LTspice_Projects\TankMET_Transducer_Sims\SMATR400H99XDA_Envelope_Detector_Test_Bench.asc

V1: Removing PWL point (-2.79451e-005,-0.0122)
V1: Removing PWL point (-2.7897e-005,-0.0122)
V1: Removing PWL point (-2.77184e-005,-0.000549)
V1: Removing PWL point (-2.72582e-005,-0.0122)
V1: Removing PWL point (-2.72101e-005,-0.000549)
V1: Removing PWL point (-2.69766e-005,-0.0122)
V1: Removing PWL point (-2.68049e-005,-0.0122)
V1: Removing PWL point (-2.67637e-005,-0.0122)
V1: Removing PWL point (-2.66126e-005,-0.0122)
V1: Removing PWL point (-2.61799e-005,-0.0239)
V1: Removing PWL point (-2.60356e-005,-0.0122)
V1: Removing PWL point (-2.56235e-005,-0.0122)
V1: Removing PWL point (-2.5596e-005,-0.000549)
V1: Removing PWL point (-2.55274e-005,-0.0122)
V1: Removing PWL point (-2.53969e-005,-0.000549)
V1: Removing PWL point (-2.52732e-005,-0.0122)
V1: Removing PWL point (-2.51496e-005,-0.0122)
V1: Removing PWL point (-2.47444e-005,0.0111)
V1: Removing PWL point (-2.46894e-005,-0.000549)
V1: Removing PWL point (-2.46139e-005,-0.000549)
V1: Removing PWL point (-2.40094e-005,-0.0239)
V1: Removing PWL point (-2.38377e-005,-0.0239)
V1: Removing PWL point (-2.38102e-005,-0.0122)
V1: Removing PWL point (-2.37553e-005,-0.0122)
V1: Removing PWL point (-2.36385e-005,-0.0122)
V1: Removing PWL point (-2.34187e-005,-0.0122)
V1: Removing PWL point (-2.30753e-005,-0.0122)
V1: Removing PWL point (-2.30479e-005,-0.000549)
V1: Removing PWL point (-2.29517e-005,-0.0122)
V1: Removing PWL point (-2.28212e-005,-0.0122)
V1: Removing PWL point (-2.27456e-005,-0.000549)
V1: Removing PWL point (-2.25258e-005,-0.0239)
V1: Removing PWL point (-2.24709e-005,-0.0122)
V1: Removing PWL point (-2.24366e-005,-0.0239)
V1: Removing PWL point (-2.23267e-005,-0.0239)
V1: Removing PWL point (-2.21962e-005,-0.0122)
V1: Removing PWL point (-2.19352e-005,-0.0122)
V1: Removing PWL point (-2.18184e-005,-0.000549)
V1: Removing PWL point (-2.17222e-005,-0.000549)
V1: Removing PWL point (-2.15574e-005,-0.0122)
V1: Removing PWL point (-2.14269e-005,-0.0122)
V1: Removing PWL point (-2.13719e-005,-0.0122)
V1: Removing PWL point (-2.12277e-005,-0.0122)
V1: Removing PWL point (-2.09324e-005,-0.000549)
V1: Removing PWL point (-2.08431e-005,-0.0122)
V1: Removing PWL point (-2.07057e-005,-0.0239)
V1: Removing PWL point (-2.03005e-005,-0.000549)
V1: Removing PWL point (-2.01631e-005,-0.0122)
V1: Removing PWL point (-1.97235e-005,-0.0122)
V1: Removing PWL point (-1.96548e-005,-0.0122)
V1: Removing PWL point (-1.94282e-005,-0.0239)
V1: Removing PWL point (-1.91947e-005,-0.0122)
V1: Removing PWL point (-1.90848e-005,-0.0122)
V1: Removing PWL point (-1.87001e-005,-0.000549)
V1: Removing PWL point (-1.85902e-005,-0.0122)
V1: Removing PWL point (-1.85284e-005,-0.0122)
V1: Removing PWL point (-1.83361e-005,-0.000549)
V1: Removing PWL point (-1.82399e-005,-0.0122)
V1: Removing PWL point (-1.79652e-005,-0.0122)
V1: Removing PWL point (-1.78622e-005,-0.0122)
V1: Removing PWL point (-1.75806e-005,-0.0239)
V1: Removing PWL point (-1.74432e-005,-0.0122)
V1: Removing PWL point (-1.7299e-005,-0.0122)
V1: Removing PWL point (-1.70723e-005,-0.000549)
V1: Removing PWL point (-1.69212e-005,-0.0122)
V1: Removing PWL point (-1.66052e-005,-0.0122)
V1: Removing PWL point (-1.6516e-005,-0.0122)
V1: Removing PWL point (-1.64747e-005,-0.0122)
V1: Removing PWL point (-1.63855e-005,-0.0122)
V1: Removing PWL point (-1.63511e-005,-0.0122)
V1: Removing PWL point (-1.61725e-005,-0.0122)
V1: Removing PWL point (-1.61039e-005,-0.0122)
V1: Removing PWL point (-1.60077e-005,-0.0122)
V1: Removing PWL point (-1.57673e-005,-0.0122)
V1: Removing PWL point (-1.56917e-005,-0.0122)
V1: Removing PWL point (-1.54513e-005,-0.0122)
V1: Removing PWL point (-1.54033e-005,-0.000549)
V1: Removing PWL point (-1.53621e-005,-0.000549)
V1: Removing PWL point (-1.50324e-005,-0.0122)
V1: Removing PWL point (-1.49225e-005,-0.0122)
V1: Removing PWL point (-1.4373e-005,-0.0122)
V1: Removing PWL point (-1.42425e-005,-0.0122)
V1: Removing PWL point (-1.40296e-005,-0.000549)
V1: Removing PWL point (-1.39334e-005,-0.0122)
V1: Removing PWL point (-1.38373e-005,-0.0122)
V1: Removing PWL point (-1.35282e-005,-0.000549)
V1: Removing PWL point (-1.34938e-005,-0.000549)
V1: Removing PWL point (-1.33839e-005,-0.000549)
V1: Removing PWL point (-1.32122e-005,-0.0239)
V1: Removing PWL point (-1.30611e-005,-0.0122)
V1: Removing PWL point (-1.29924e-005,-0.0122)
V1: Removing PWL point (-1.2704e-005,-0.0122)
V1: Removing PWL point (-1.2546e-005,-0.000549)
V1: Removing PWL point (-1.24361e-005,-0.000549)
V1: Removing PWL point (-1.23056e-005,-0.0122)
V1: Removing PWL point (-1.22163e-005,-0.000549)
V1: Removing PWL point (-1.20171e-005,-0.0122)
V1: Removing PWL point (-1.19347e-005,-0.0122)
V1: Removing PWL point (-1.18935e-005,-0.0122)
V1: Removing PWL point (-1.17287e-005,-0.000549)
V1: Removing PWL point (-1.16737e-005,-0.000549)
V1: Removing PWL point (-1.16188e-005,-0.0122)
V1: Removing PWL point (-1.14745e-005,-0.0122)
V1: Removing PWL point (-1.13234e-005,-0.0239)
V1: Removing PWL point (-1.12341e-005,-0.0239)
V1: Removing PWL point (-1.11792e-005,-0.0239)
V1: Removing PWL point (-1.11036e-005,-0.0122)
V1: Removing PWL point (-1.10418e-005,-0.0122)
V1: Removing PWL point (-1.09319e-005,-0.0122)
V1: Removing PWL point (-1.06503e-005,-0.000549)
V1: Removing PWL point (-1.05267e-005,-0.0122)
V1: Removing PWL point (-1.04374e-005,-0.000549)
V1: Removing PWL point (-9.85356e-006,-0.0122)
V1: Removing PWL point (-9.77801e-006,-0.0122)
V1: Removing PWL point (-9.52388e-006,-0.0122)
V1: Removing PWL point (-9.36591e-006,-0.0122)
V1: Removing PWL point (-9.25601e-006,-0.0122)
V1: Removing PWL point (-9.22167e-006,-0.0122)
V1: Removing PWL point (-8.87138e-006,-0.0122)
V1: Removing PWL point (-8.63098e-006,-0.0122)
V1: Removing PWL point (-8.5829e-006,-0.0122)
V1: Removing PWL point (-8.08837e-006,-0.0122)
V1: Removing PWL point (-7.94414e-006,-0.000549)
V1: Removing PWL point (-7.8205e-006,-0.000549)
V1: Removing PWL point (-7.73808e-006,-0.0122)
V1: Removing PWL point (-7.5389e-006,-0.000549)
V1: Removing PWL point (-7.42213e-006,-0.0122)
V1: Removing PWL point (-7.27103e-006,-0.0122)
V1: Removing PWL point (-7.168e-006,-0.0122)
V1: Removing PWL point (-6.86579e-006,-0.0122)
V1: Removing PWL point (-6.80397e-006,-0.0122)
V1: Removing PWL point (-6.76276e-006,-0.0122)
V1: Removing PWL point (-6.72155e-006,-0.0122)
V1: Removing PWL point (-6.68721e-006,-0.0122)
V1: Removing PWL point (-6.32318e-006,-0.0122)
V1: Removing PWL point (-6.2751e-006,-0.0122)
V1: Removing PWL point (-6.19268e-006,-0.0122)
V1: Removing PWL point (-6.10339e-006,-0.000549)
V1: Removing PWL point (-5.98663e-006,-0.000549)
V1: Removing PWL point (-5.90421e-006,-0.000549)
V1: Removing PWL point (-5.72563e-006,-0.000549)
V1: Removing PWL point (-5.67068e-006,-0.0239)
V1: Removing PWL point (-5.28605e-006,-0.0122)
V1: Removing PWL point (-5.24484e-006,-0.0122)
V1: Removing PWL point (-5.15555e-006,-0.0122)
V1: Removing PWL point (-4.83273e-006,-0.0122)
V1: Removing PWL point (-4.50991e-006,-0.0122)
V1: Removing PWL point (-4.41376e-006,-0.0122)
V1: Removing PWL point (-4.36568e-006,-0.0122)
V1: Removing PWL point (-4.33133e-006,-0.0122)
V1: Removing PWL point (-4.29699e-006,-0.000549)
V1: Removing PWL point (-4.22144e-006,-0.000549)
V1: Removing PWL point (-4.1871e-006,-0.000549)
V1: Removing PWL point (-4.02912e-006,-0.0122)
V1: Removing PWL point (-3.75438e-006,-0.0239)
V1: Removing PWL point (-3.56894e-006,-0.0239)
V1: Removing PWL point (-3.39036e-006,-0.0122)
V1: Removing PWL point (-3.33541e-006,-0.0122)
V1: Removing PWL point (-3.25299e-006,-0.0122)
V1: Removing PWL point (-2.97825e-006,-0.0122)
V1: Removing PWL point (-2.93704e-006,-0.0122)
V1: Removing PWL point (-2.76533e-006,-0.0122)
V1: Removing PWL point (-2.62796e-006,-0.0122)
V1: Removing PWL point (-2.33262e-006,-0.0122)
V1: Removing PWL point (-2.12656e-006,-0.0122)
V1: Removing PWL point (-2.04414e-006,-0.0122)
V1: Removing PWL point (-1.85182e-006,-0.0122)
V1: Removing PWL point (-1.78314e-006,-0.0122)
V1: Removing PWL point (-1.7488e-006,-0.0122)
V1: Removing PWL point (-1.42598e-006,-0.000549)
V1: Removing PWL point (-1.38477e-006,-0.000549)
V1: Removing PWL point (-1.32295e-006,-0.000549)
V1: Removing PWL point (-1.28861e-006,-0.000549)
V1: Removing PWL point (-1.17185e-006,-0.000549)
V1: Removing PWL point (-1.1169e-006,-0.000549)
V1: Removing PWL point (-1.04822e-006,-0.0122)
V1: Removing PWL point (-8.97111e-007,-0.0122)
V1: Removing PWL point (-7.6661e-007,-0.0122)
V1: Removing PWL point (-3.2703e-007,0.0228)
V1: Removing PWL point (2.32611e-008,0.407)
V1: Removing PWL point (2.01841e-007,0.571)
V1: Removing PWL point (3.25473e-007,0.676)
V1: Removing PWL point (7.65053e-007,0.746)
V1: Removing PWL point (1.78845e-006,-0.56)
V1: Removing PWL point (1.87087e-006,-0.595)
V1: Removing PWL point (3.06598e-006,1.1)
V1: Removing PWL point (3.10033e-006,1.12)
V1: Removing PWL point (3.20335e-006,1.12)
V1: Removing PWL point (3.30638e-006,1.12)
V1: Removing PWL point (4.35038e-006,-0.665)
V1: Removing PWL point (4.40533e-006,-0.665)
V1: Removing PWL point (5.40812e-006,0.92)
V1: Removing PWL point (5.53176e-006,1.03)
V1: Removing PWL point (5.66912e-006,1.06)
V1: Removing PWL point (5.73781e-006,1.03)
V1: Removing PWL point (5.78589e-006,1.03)
V1: Removing PWL point (6.69939e-006,-0.514)
V1: Removing PWL point (6.84363e-006,-0.572)
V1: Removing PWL point (6.88484e-006,-0.56)
V1: Removing PWL point (6.94666e-006,-0.56)
V1: Removing PWL point (8.11429e-006,0.967)
V1: Removing PWL point (8.16924e-006,0.955)
V1: Removing PWL point (8.19671e-006,0.944)
V1: Removing PWL point (8.29974e-006,0.897)
V1: Removing PWL point (8.79427e-006,-0.0705)
V1: Removing PWL point (9.13769e-006,-0.455)
V1: Removing PWL point (9.33687e-006,-0.525)
V1: Removing PWL point (9.39869e-006,-0.525)
V1: Removing PWL point (1.00718e-005,0.0228)
V1: Removing PWL point (1.01267e-005,0.0577)
V1: Removing PWL point (1.0477e-005,0.163)
V1: Removing PWL point (1.05457e-005,0.163)
V1: Removing PWL point (1.06487e-005,0.151)
V1: Removing PWL point (1.08205e-005,0.0927)
V1: Removing PWL point (1.08548e-005,0.0811)
V1: Removing PWL point (1.10883e-005,-0.0239)
V1: Removing PWL point (1.12051e-005,-0.0705)
V1: Removing PWL point (1.13219e-005,-0.0938)
V1: Removing PWL point (1.14386e-005,-0.105)
V1: Removing PWL point (1.19812e-005,0.0344)
V1: Removing PWL point (1.20705e-005,0.0577)
V1: Removing PWL point (1.21529e-005,0.0694)
V1: Removing PWL point (1.22697e-005,0.0927)
V1: Removing PWL point (1.22972e-005,0.0927)
V1: Removing PWL point (1.24826e-005,0.104)
V1: Removing PWL point (1.26337e-005,0.0811)
V1: Removing PWL point (1.32038e-005,-0.0938)
V1: Removing PWL point (1.33343e-005,-0.117)
V1: Removing PWL point (1.34167e-005,-0.129)
V1: Removing PWL point (1.35335e-005,-0.129)
V1: Removing PWL point (1.36709e-005,-0.129)
V1: Removing PWL point (1.37052e-005,-0.117)
V1: Removing PWL point (1.39113e-005,-0.105)
V1: Removing PWL point (1.40555e-005,-0.0822)
V1: Removing PWL point (1.40967e-005,-0.0822)
V1: Removing PWL point (1.44127e-005,-0.000549)
V1: Removing PWL point (1.50171e-005,0.0927)
V1: Removing PWL point (1.51751e-005,0.104)
V1: Removing PWL point (1.53811e-005,0.128)
V1: Removing PWL point (1.56421e-005,0.116)
V1: Removing PWL point (1.56696e-005,0.104)
V1: Removing PWL point (1.59375e-005,0.0344)
V1: Removing PWL point (1.6068e-005,-0.0239)
V1: Removing PWL point (1.62122e-005,-0.0822)
V1: Removing PWL point (1.64732e-005,-0.21)
V1: Removing PWL point (1.65968e-005,-0.257)
V1: Removing PWL point (1.6638e-005,-0.269)
V1: Removing PWL point (1.67891e-005,-0.292)
V1: Removing PWL point (1.76958e-005,0.209)
V1: Removing PWL point (1.77301e-005,0.233)
V1: Removing PWL point (1.79774e-005,0.338)
V1: Removing PWL point (1.80461e-005,0.349)
V1: Removing PWL point (1.8204e-005,0.343)
V1: Removing PWL point (1.92686e-005,-0.444)
V1: Removing PWL point (1.92961e-005,-0.449)
V1: Removing PWL point (1.93167e-005,-0.455)
V1: Removing PWL point (1.94747e-005,-0.444)
V1: Removing PWL point (1.9825e-005,-0.187)
V1: Removing PWL point (2.01341e-005,0.139)
V1: Removing PWL point (2.04225e-005,0.396)
V1: Removing PWL point (2.05874e-005,0.466)
V1: Removing PWL point (2.06904e-005,0.454)
V1: Removing PWL point (2.07179e-005,0.448)
V1: Removing PWL point (2.08003e-005,0.419)
V1: Removing PWL point (2.08278e-005,0.407)
V1: Removing PWL point (2.11781e-005,0.0811)
V1: Removing PWL point (2.12674e-005,-0.0122)
V1: Removing PWL point (2.16383e-005,-0.374)
V1: Removing PWL point (2.17069e-005,-0.409)
V1: Removing PWL point (2.17756e-005,-0.432)
V1: Removing PWL point (2.18168e-005,-0.455)
V1: Removing PWL point (2.18581e-005,-0.455)
V1: Removing PWL point (2.19748e-005,-0.444)
V1: Removing PWL point (2.23457e-005,-0.199)
V1: Removing PWL point (2.30257e-005,0.361)
V1: Removing PWL point (2.31493e-005,0.384)
V1: Removing PWL point (2.36438e-005,0.104)
V1: Removing PWL point (2.374e-005,0.0111)
V1: Removing PWL point (2.37675e-005,-0.0122)
V1: Removing PWL point (2.41659e-005,-0.292)
V1: Removing PWL point (2.4839e-005,-0.117)
V1: Removing PWL point (2.50175e-005,0.0111)
V1: Removing PWL point (2.50519e-005,0.0344)
V1: Removing PWL point (2.51206e-005,0.0811)
V1: Removing PWL point (2.51618e-005,0.104)
V1: Removing PWL point (2.52923e-005,0.163)
V1: Removing PWL point (2.53541e-005,0.198)
V1: Removing PWL point (2.54846e-005,0.221)
V1: Removing PWL point (2.56288e-005,0.221)
V1: Removing PWL point (2.57731e-005,0.186)
V1: Removing PWL point (2.60066e-005,0.0811)
V1: Removing PWL point (2.6089e-005,0.0228)
V1: Removing PWL point (2.62058e-005,-0.0355)
V1: Removing PWL point (2.64736e-005,-0.152)
V1: Removing PWL point (2.65355e-005,-0.164)
V1: Removing PWL point (2.69613e-005,-0.129)
V1: Removing PWL point (2.71124e-005,-0.0938)
V1: Removing PWL point (2.72017e-005,-0.0472)
V1: Removing PWL point (2.72498e-005,-0.0239)
V1: Removing PWL point (2.73597e-005,0.0111)
V1: Removing PWL point (2.74146e-005,0.0344)
V1: Removing PWL point (2.75726e-005,0.0811)
V1: Removing PWL point (2.76069e-005,0.0811)
V1: Removing PWL point (2.77718e-005,0.0927)
V1: Removing PWL point (2.80465e-005,0.0577)
V1: Removing PWL point (2.80946e-005,0.0461)
V1: Removing PWL point (2.81289e-005,0.0344)
V1: Removing PWL point (2.83899e-005,-0.0355)
V1: Removing PWL point (2.84312e-005,-0.0472)
V1: Removing PWL point (2.85548e-005,-0.0705)
V1: Removing PWL point (2.86097e-005,-0.0822)
V1: Removing PWL point (2.87128e-005,-0.0938)
V1: Removing PWL point (2.88501e-005,-0.105)
V1: Removing PWL point (2.92004e-005,-0.0472)
V1: Removing PWL point (2.92416e-005,-0.0355)
V1: Removing PWL point (2.93172e-005,-0.0122)
V1: Removing PWL point (2.95507e-005,0.0577)
V1: Removing PWL point (2.96743e-005,0.0811)
V1: Removing PWL point (2.97293e-005,0.0811)
V1: Removing PWL point (2.98667e-005,0.0811)
V1: Removing PWL point (2.99216e-005,0.0927)
V1: Removing PWL point (2.99697e-005,0.0694)
V1: Removing PWL point (3.01139e-005,0.0461)
V1: Removing PWL point (3.01689e-005,0.0344)
V1: Removing PWL point (3.05741e-005,-0.0822)
V1: Removing PWL point (3.08008e-005,-0.117)
V1: Removing PWL point (3.0842e-005,-0.117)
V1: Removing PWL point (3.08901e-005,-0.129)
V1: Removing PWL point (3.09793e-005,-0.129)
V1: Removing PWL point (3.11098e-005,-0.105)
V1: Removing PWL point (3.12678e-005,-0.0705)
V1: Removing PWL point (3.14258e-005,-0.0355)
V1: Removing PWL point (3.17074e-005,0.0461)
V1: Removing PWL point (3.17555e-005,0.0577)
V1: Removing PWL point (3.1783e-005,0.0694)
V1: Removing PWL point (3.20371e-005,0.0927)
V1: Removing PWL point (3.20714e-005,0.0927)
V1: Removing PWL point (3.21401e-005,0.0927)
V1: Removing PWL point (3.22225e-005,0.0927)
V1: Removing PWL point (3.25247e-005,0.0344)
V1: Removing PWL point (3.25591e-005,0.0228)
V1: Removing PWL point (3.28682e-005,-0.0588)
V1: Removing PWL point (3.31704e-005,-0.105)
V1: Removing PWL point (3.33764e-005,-0.105)
V1: Removing PWL point (3.34176e-005,-0.105)
V1: Removing PWL point (3.35275e-005,-0.0938)
V1: Removing PWL point (3.37679e-005,-0.0472)
V1: Removing PWL point (3.4132e-005,0.0228)
V1: Removing PWL point (3.41938e-005,0.0344)
V1: Removing PWL point (3.43312e-005,0.0577)
V1: Removing PWL point (3.45372e-005,0.0577)
V1: Removing PWL point (3.48188e-005,0.0344)
V1: Removing PWL point (3.52653e-005,-0.0355)
V1: Removing PWL point (3.54095e-005,-0.0472)
V1: Removing PWL point (3.58079e-005,-0.0588)
V1: Removing PWL point (3.5959e-005,-0.0472)
V1: Removing PWL point (3.62543e-005,-0.0239)
V1: Removing PWL point (3.63161e-005,-0.0239)
V1: Removing PWL point (3.63436e-005,-0.0355)
V1: Removing PWL point (3.63711e-005,-0.0239)
V1: Removing PWL point (3.66527e-005,-0.0122)
V1: Removing PWL point (3.67557e-005,-0.0122)
V1: Removing PWL point (3.69068e-005,-0.000549)
V1: Removing PWL point (3.69412e-005,-0.000549)
V1: Removing PWL point (3.70648e-005,-0.000549)
V1: Removing PWL point (3.73807e-005,0.0111)
V1: Removing PWL point (3.7422e-005,0.0111)
V1: Removing PWL point (3.76074e-005,0.0111)
V1: Removing PWL point (3.77242e-005,0.0111)
V1: Removing PWL point (3.78135e-005,0.0111)
V1: Removing PWL point (3.82599e-005,-0.0122)
V1: Removing PWL point (3.85484e-005,-0.0355)
V1: Removing PWL point (3.88025e-005,-0.0355)
V1: Removing PWL point (3.88849e-005,-0.0472)
V1: Removing PWL point (3.91116e-005,-0.0472)
V1: Removing PWL point (3.94894e-005,-0.0239)
V1: Removing PWL point (3.95649e-005,-0.0355)
V1: Removing PWL point (3.96199e-005,-0.0239)
V1: Removing PWL point (3.96611e-005,-0.0122)
V1: Removing PWL point (3.97435e-005,-0.000549)
V1: Removing PWL point (3.98465e-005,0.0111)
V1: Removing PWL point (3.99358e-005,0.0111)
V1: Removing PWL point (3.9977e-005,0.0228)
V1: Removing PWL point (4.00938e-005,0.0228)
V1: Removing PWL point (4.0238e-005,0.0228)
V1: Removing PWL point (4.0341e-005,0.0344)
V1: Removing PWL point (4.05334e-005,0.0228)
V1: Removing PWL point (4.05746e-005,0.0228)
V1: Removing PWL point (4.0657e-005,0.0228)
V1: Removing PWL point (4.08424e-005,0.0111)
V1: Removing PWL point (4.10348e-005,-0.0239)
V1: Removing PWL point (4.1076e-005,-0.0239)
V1: Removing PWL point (4.11996e-005,-0.0355)
V1: Removing PWL point (4.12408e-005,-0.0239)
V1: Removing PWL point (4.15087e-005,-0.0588)
V1: Removing PWL point (4.16392e-005,-0.0588)
V1: Removing PWL point (4.19002e-005,-0.0472)
V1: Removing PWL point (4.21268e-005,-0.0239)
V1: Removing PWL point (4.21818e-005,-0.0122)
V1: Removing PWL point (4.22436e-005,-0.000549)
V1: Removing PWL point (4.25183e-005,0.0228)
V1: Removing PWL point (4.26282e-005,0.0228)
V1: Removing PWL point (4.26694e-005,0.0228)
V1: Removing PWL point (4.29717e-005,0.0111)
V1: Removing PWL point (4.3006e-005,0.0111)
V1: Removing PWL point (4.30747e-005,0.0111)
V1: Removing PWL point (4.34456e-005,-0.0122)
V1: Removing PWL point (4.3631e-005,-0.0239)
V1: Removing PWL point (4.36928e-005,-0.0239)
V1: Removing PWL point (4.38233e-005,-0.0239)
V1: Removing PWL point (4.38783e-005,-0.0355)
V1: Removing PWL point (4.39882e-005,-0.0355)
V1: Removing PWL point (4.40225e-005,-0.0355)
V1: Removing PWL point (4.42904e-005,-0.0239)
V1: Removing PWL point (4.44209e-005,-0.0239)
V1: Removing PWL point (4.45514e-005,-0.0239)
V1: Removing PWL point (4.45995e-005,-0.0122)
V1: Removing PWL point (4.48536e-005,-0.0122)
V1: Removing PWL point (4.49772e-005,-0.0122)
V1: Removing PWL point (4.50253e-005,-0.0122)
V1: Removing PWL point (4.50597e-005,-0.0122)
V1: Removing PWL point (4.51146e-005,-0.0122)
V1: Removing PWL point (4.53344e-005,-0.000549)
V1: Removing PWL point (4.53893e-005,-0.000549)
V1: Removing PWL point (4.56435e-005,-0.0122)
V1: Removing PWL point (4.5774e-005,-0.0122)
V1: Removing PWL point (4.59938e-005,-0.0122)
V1: Removing PWL point (4.6241e-005,-0.0122)
V1: Removing PWL point (4.63441e-005,-0.0122)
V1: Removing PWL point (4.64334e-005,-0.000549)
V1: Removing PWL point (4.65089e-005,-0.000549)
V1: Removing PWL point (4.65845e-005,-0.000549)
V1: Removing PWL point (4.67768e-005,-0.0122)
V1: Removing PWL point (4.68317e-005,-0.0122)
V1: Removing PWL point (4.71339e-005,-0.0122)
V1: Removing PWL point (4.71958e-005,-0.0122)
V1: Removing PWL point (4.72438e-005,-0.0122)
V1: Removing PWL point (4.7285e-005,-0.0122)
V1: Removing PWL point (4.73537e-005,-0.0239)
V1: Removing PWL point (4.74842e-005,-0.0239)
V1: Removing PWL point (4.77864e-005,-0.0355)
V1: Removing PWL point (4.7862e-005,-0.0355)
V1: Removing PWL point (4.80749e-005,-0.0239)
V1: Removing PWL point (4.82054e-005,-0.0239)
V1: Removing PWL point (4.82329e-005,-0.0122)
V1: Removing PWL point (4.84733e-005,-0.000549)
V1: Removing PWL point (4.85145e-005,-0.000549)
V1: Removing PWL point (4.86587e-005,0.0111)
V1: Removing PWL point (4.87892e-005,0.0111)
V1: Removing PWL point (4.89197e-005,0.0228)
V1: Removing PWL point (4.89541e-005,0.0111)
V1: Removing PWL point (4.92563e-005,0.0111)
V1: Removing PWL point (4.95104e-005,-0.000549)
V1: Removing PWL point (4.96753e-005,-0.0239)
V1: Removing PWL point (4.98951e-005,-0.0239)
V1: Removing PWL point (4.99775e-005,-0.0239)
V1: Removing PWL point (5.00393e-005,-0.0355)
V1: Removing PWL point (5.01698e-005,-0.0355)
V1: Removing PWL point (5.0211e-005,-0.0239)
V1: Removing PWL point (5.02797e-005,-0.0355)
V1: Removing PWL point (5.05201e-005,-0.0355)
V1: Removing PWL point (5.06368e-005,-0.0239)
V1: Removing PWL point (5.07399e-005,-0.0239)
V1: Removing PWL point (5.07742e-005,-0.0239)
V1: Removing PWL point (5.09116e-005,-0.0122)
V1: Removing PWL point (5.09734e-005,-0.0122)
V1: Removing PWL point (5.10833e-005,-0.000549)
V1: Removing PWL point (5.11794e-005,-0.000549)
V1: Removing PWL point (5.13031e-005,0.0111)
V1: Removing PWL point (5.13512e-005,0.0111)
V1: Removing PWL point (5.14542e-005,0.0111)
V1: Removing PWL point (5.17289e-005,0.0111)
V1: Removing PWL point (5.23883e-005,-0.0239)
V1: Removing PWL point (5.26012e-005,-0.0239)
V1: Removing PWL point (5.26356e-005,-0.0355)
V1: Removing PWL point (5.27455e-005,-0.0239)
V1: Removing PWL point (5.27867e-005,-0.0355)
V1: Removing PWL point (5.2876e-005,-0.0355)
V1: Removing PWL point (5.30889e-005,-0.0239)
V1: Removing PWL point (5.32675e-005,-0.0122)
V1: Removing PWL point (5.33018e-005,-0.0122)
V1: Removing PWL point (5.33567e-005,-0.0122)
V1: Removing PWL point (5.34392e-005,-0.0122)
V1: Removing PWL point (5.36658e-005,-0.000549)
V1: Removing PWL point (5.37208e-005,-0.000549)
V1: Removing PWL point (5.38856e-005,-0.000549)
V1: Removing PWL point (5.39406e-005,-0.000549)
V1: Removing PWL point (5.39749e-005,-0.000549)
V1: Removing PWL point (5.40024e-005,0.0111)
V1: Removing PWL point (5.40505e-005,-0.000549)
V1: Removing PWL point (5.41741e-005,-0.000549)
V1: Removing PWL point (5.42222e-005,-0.000549)
V1: Removing PWL point (5.43252e-005,-0.000549)
V1: Removing PWL point (5.46549e-005,-0.0122)
V1: Removing PWL point (5.46824e-005,-0.000549)
V1: Removing PWL point (5.47373e-005,-0.000549)
V1: Removing PWL point (5.48609e-005,-0.0122)
V1: Removing PWL point (5.49914e-005,-0.0122)
V1: Removing PWL point (5.51631e-005,-0.0122)
V1: Removing PWL point (5.53074e-005,-0.0239)
V1: Removing PWL point (5.54516e-005,-0.0239)
V1: Removing PWL point (5.55684e-005,-0.0239)
V1: Removing PWL point (5.56302e-005,-0.0239)
V1: Removing PWL point (5.61865e-005,-0.0122)
V1: Removing PWL point (5.64063e-005,-0.0122)
V1: Removing PWL point (5.64544e-005,-0.000549)
V1: Removing PWL point (5.65231e-005,-0.000549)
V1: Removing PWL point (5.66467e-005,-0.000549)
V1: Removing PWL point (5.67635e-005,-0.000549)
V1: Removing PWL point (5.70794e-005,-0.0122)
V1: Removing PWL point (5.74916e-005,-0.0122)
V1: Removing PWL point (5.7574e-005,-0.0122)
V1: Removing PWL point (5.76221e-005,-0.0122)
V1: Removing PWL point (5.78693e-005,-0.0122)
V1: Removing PWL point (5.79998e-005,-0.0122)
V1: Removing PWL point (5.80204e-005,-0.000549)
V1: Removing PWL point (5.84669e-005,-0.0122)
V1: Removing PWL point (5.86455e-005,-0.0239)
V1: Removing PWL point (5.88515e-005,-0.0239)
V1: Removing PWL point (5.8982e-005,-0.0122)
V1: Removing PWL point (5.95109e-005,-0.000549)
V1: Removing PWL point (5.9765e-005,-0.000549)
V1: Removing PWL point (6.01634e-005,-0.000549)
V1: Removing PWL point (6.03969e-005,-0.0122)
V1: Removing PWL point (6.06716e-005,-0.0239)
V1: Removing PWL point (6.07541e-005,-0.0122)
V1: Removing PWL point (6.08159e-005,-0.0239)
V1: Removing PWL point (6.08434e-005,-0.0122)
V1: Removing PWL point (6.08846e-005,-0.0122)
V1: Removing PWL point (6.09739e-005,-0.0122)
V1: Removing PWL point (6.10975e-005,-0.0122)
V1: Removing PWL point (6.12692e-005,-0.0239)
V1: Removing PWL point (6.13104e-005,-0.0122)
V1: Removing PWL point (6.13448e-005,-0.0122)
V1: Removing PWL point (6.15714e-005,-0.0122)
V1: Removing PWL point (6.18599e-005,-0.0122)
V1: Removing PWL point (6.2114e-005,-0.0122)
V1: Removing PWL point (6.22514e-005,-0.0122)
V1: Removing PWL point (6.22926e-005,-0.000549)
V1: Removing PWL point (6.23338e-005,-0.0122)
V1: Removing PWL point (6.24368e-005,-0.0122)
V1: Removing PWL point (6.25879e-005,-0.000549)
V1: Removing PWL point (6.26704e-005,-0.000549)
V1: Removing PWL point (6.27184e-005,-0.000549)
V1: Removing PWL point (6.28352e-005,-0.000549)
V1: Removing PWL point (6.29176e-005,-0.000549)
V1: Removing PWL point (6.30825e-005,-0.000549)
V1: Removing PWL point (6.31855e-005,-0.0122)
V1: Removing PWL point (6.32748e-005,-0.0122)
V1: Removing PWL point (6.33984e-005,-0.0122)
V1: Removing PWL point (6.34396e-005,-0.0122)
V1: Removing PWL point (6.35564e-005,-0.0239)
V1: Removing PWL point (6.38861e-005,-0.0122)
V1: Removing PWL point (6.39616e-005,-0.0122)
V1: Removing PWL point (6.40234e-005,-0.0239)
V1: Removing PWL point (6.41196e-005,-0.0122)
V1: Removing PWL point (6.42226e-005,-0.0122)
V1: Removing PWL point (6.43188e-005,-0.0239)
V1: Removing PWL point (6.44012e-005,-0.0239)
V1: Removing PWL point (6.46279e-005,-0.0122)
V1: Removing PWL point (6.51224e-005,-0.0122)
V1: Removing PWL point (6.52048e-005,-0.000549)
V1: Removing PWL point (6.52804e-005,-0.0122)
V1: Removing PWL point (6.5665e-005,-0.000549)
V1: Removing PWL point (6.56993e-005,-0.000549)
V1: Removing PWL point (6.58298e-005,-0.0122)
V1: Removing PWL point (6.58573e-005,-0.000549)
V1: Removing PWL point (6.64068e-005,-0.0122)
V1: Removing PWL point (6.6551e-005,-0.0122)
V1: Removing PWL point (6.66197e-005,-0.0239)
V1: Removing PWL point (6.66953e-005,-0.0239)
V1: Removing PWL point (6.71074e-005,-0.0239)
V1: Removing PWL point (6.71555e-005,-0.0122)
V1: Removing PWL point (6.74165e-005,-0.0122)
V1: Removing PWL point (6.75332e-005,-0.0122)
V1: Removing PWL point (6.75882e-005,-0.0122)
V1: Removing PWL point (6.77393e-005,-0.0122)
V1: Removing PWL point (6.7911e-005,-0.000549)
V1: Removing PWL point (6.80209e-005,-0.000549)
V1: Removing PWL point (6.80758e-005,-0.0122)
V1: Removing PWL point (6.81308e-005,-0.000549)
V1: Removing PWL point (6.82681e-005,-0.000549)
V1: Removing PWL point (6.83574e-005,-0.0122)
V1: Removing PWL point (6.84055e-005,-0.0122)
V1: Removing PWL point (6.84536e-005,-0.0239)
V1: Removing PWL point (6.87421e-005,-0.0122)
V1: Removing PWL point (6.91816e-005,-0.0122)
V1: Removing PWL point (6.92091e-005,-0.0239)
V1: Removing PWL point (6.92847e-005,-0.0122)
V1: Removing PWL point (6.9477e-005,-0.0122)
V1: Removing PWL point (6.95594e-005,-0.0239)
V1: Removing PWL point (6.97861e-005,-0.0239)
V1: Removing PWL point (6.98273e-005,-0.0239)
V1: Removing PWL point (7.00608e-005,-0.0239)
V1: Removing PWL point (7.01501e-005,-0.0122)
V1: Removing PWL point (7.03562e-005,-0.0122)
V1: Removing PWL point (7.05073e-005,-0.000549)
V1: Removing PWL point (7.08026e-005,-0.000549)
V1: Removing PWL point (7.08919e-005,-0.000549)
V1: Removing PWL point (7.10224e-005,-0.0122)
V1: Removing PWL point (7.10979e-005,-0.000549)
V1: Removing PWL point (7.12903e-005,-0.0122)
V1: Removing PWL point (7.15856e-005,-0.0122)
V1: Removing PWL point (7.24167e-005,-0.0239)
V1: Removing PWL point (7.27601e-005,-0.0239)
V1: Removing PWL point (7.31379e-005,-0.0122)
V1: Removing PWL point (7.33783e-005,-0.0122)
V1: Removing PWL point (7.3447e-005,-0.000549)
V1: Removing PWL point (7.34676e-005,-0.0122)
V1: Removing PWL point (7.36187e-005,-0.000549)
V1: Removing PWL point (7.38934e-005,-0.000549)
V1: Removing PWL point (7.40308e-005,-0.000549)
V1: Removing PWL point (7.40788e-005,-0.0122)
V1: Removing PWL point (7.43811e-005,-0.0122)
V1: Removing PWL point (7.44566e-005,-0.0122)
V1: Removing PWL point (7.48206e-005,-0.0122)
V1: Removing PWL point (7.48619e-005,-0.0239)
V1: Removing PWL point (7.49511e-005,-0.0122)
V1: Removing PWL point (7.49992e-005,-0.0122)
V1: Removing PWL point (7.50885e-005,-0.0122)
V1: Removing PWL point (7.51641e-005,-0.000549)
V1: Removing PWL point (7.54663e-005,-0.0122)
V1: Removing PWL point (7.61188e-005,-0.0122)
V1: Removing PWL point (7.62905e-005,-0.0122)
V1: Removing PWL point (7.63454e-005,-0.0122)
V1: Removing PWL point (7.64897e-005,-0.0122)
V1: Removing PWL point (7.65171e-005,-0.000549)
V1: Removing PWL point (7.65927e-005,-0.0122)
V1: Removing PWL point (7.67369e-005,-0.000549)
V1: Removing PWL point (7.67781e-005,-0.0122)
V1: Removing PWL point (7.69499e-005,-0.0122)
V1: Removing PWL point (7.70666e-005,-0.0122)
V1: Removing PWL point (7.71216e-005,-0.0122)
V1: Removing PWL point (7.72452e-005,-0.0122)
V1: Removing PWL point (7.7307e-005,-0.000549)
V1: Removing PWL point (7.73551e-005,-0.0122)
V1: Removing PWL point (7.73826e-005,-0.0239)
V1: Removing PWL point (7.80351e-005,-0.0122)
V1: Removing PWL point (7.85159e-005,-0.0122)
V1: Removing PWL point (7.87769e-005,-0.0122)
V1: Removing PWL point (7.88799e-005,-0.0122)
V1: Removing PWL point (7.89623e-005,-0.0122)
V1: Removing PWL point (7.89967e-005,-0.0239)
V1: Removing PWL point (7.90516e-005,-0.0122)
V1: Removing PWL point (7.91615e-005,-0.0122)
V1: Removing PWL point (7.92164e-005,-0.0122)
V1: Removing PWL point (7.94088e-005,-0.0122)
V1: Removing PWL point (7.96079e-005,-0.000549)
V1: Removing PWL point (7.96629e-005,-0.0122)
V1: Removing PWL point (7.99995e-005,-0.0122)
V1: Removing PWL point (8.01918e-005,-0.0122)
V1: Removing PWL point (8.02398e-005,-0.0122)
V1: Removing PWL point (8.02948e-005,-0.0122)
V1: Removing PWL point (8.04459e-005,-0.0122)
V1: Removing PWL point (8.05627e-005,-0.0122)
V1: Removing PWL point (8.07069e-005,-0.0239)
V1: Removing PWL point (8.07687e-005,-0.0239)
V1: Removing PWL point (8.09885e-005,-0.0239)
V1: Removing PWL point (8.12976e-005,-0.0122)
V1: Removing PWL point (8.18059e-005,-0.000549)
V1: Removing PWL point (8.18539e-005,-0.0122)
V1: Removing PWL point (8.1957e-005,-0.000549)
V1: Removing PWL point (8.21561e-005,-0.0122)
V1: Removing PWL point (8.23004e-005,-0.0122)
V1: Removing PWL point (8.25133e-005,-0.0122)
V1: Removing PWL point (8.26575e-005,-0.0122)
V1: Removing PWL point (8.28293e-005,-0.0122)
V1: Removing PWL point (8.28567e-005,-0.000549)
V1: Removing PWL point (8.31727e-005,-0.0122)
V1: Removing PWL point (8.32482e-005,-0.0122)
V1: Removing PWL point (8.34062e-005,-0.0122)
V1: Removing PWL point (8.37015e-005,-0.0122)
V1: Removing PWL point (8.40038e-005,-0.0122)
V1: Removing PWL point (8.42579e-005,-0.0122)
V1: Removing PWL point (8.4615e-005,-0.000549)
V1: Removing PWL point (8.47455e-005,-0.0122)
V1: Removing PWL point (8.48211e-005,-0.0122)
V1: Removing PWL point (8.48554e-005,-0.0122)
V1: Removing PWL point (8.49241e-005,-0.0122)
V1: Removing PWL point (8.52744e-005,-0.0122)
V1: Removing PWL point (8.53156e-005,-0.0122)
V1: Removing PWL point (8.55835e-005,-0.0122)
V1: Removing PWL point (8.57277e-005,-0.0122)
V1: Removing PWL point (8.58102e-005,-0.0122)
V1: Removing PWL point (8.58926e-005,-0.0122)
V1: Removing PWL point (8.6133e-005,-0.0122)
V1: Removing PWL point (8.62017e-005,-0.0239)
V1: Removing PWL point (8.63665e-005,-0.0122)
V1: Removing PWL point (8.64283e-005,-0.0122)
V1: Removing PWL point (8.65588e-005,-0.0122)
V1: Removing PWL point (8.66481e-005,-0.0122)
V1: Removing PWL point (8.67786e-005,-0.0122)
V1: Removing PWL point (8.71152e-005,-0.0239)
V1: Removing PWL point (8.71701e-005,-0.0122)
V1: Removing PWL point (8.73762e-005,-0.0122)
V1: Removing PWL point (8.74998e-005,-0.000549)
V1: Removing PWL point (8.7644e-005,-0.0122)
V1: Removing PWL point (8.8166e-005,-0.0122)
V1: Removing PWL point (8.82485e-005,-0.000549)
V1: Removing PWL point (8.86194e-005,-0.0239)
V1: Removing PWL point (8.87086e-005,-0.0239)
V1: Removing PWL point (8.87773e-005,-0.0239)
V1: Removing PWL point (8.88117e-005,-0.0122)
V1: Removing PWL point (8.89353e-005,-0.0239)
V1: Removing PWL point (8.93886e-005,-0.000549)
V1: Removing PWL point (8.9423e-005,-0.0122)
V1: Removing PWL point (8.94504e-005,-0.000549)
V1: Removing PWL point (9.01441e-005,-0.0239)
V1: Removing PWL point (9.05769e-005,-0.0122)
V1: Removing PWL point (9.06661e-005,-0.0122)
V1: Removing PWL point (9.0989e-005,-0.000549)
V1: Removing PWL point (9.10164e-005,-0.0122)
V1: Removing PWL point (9.11195e-005,-0.0122)
V1: Removing PWL point (9.11675e-005,-0.0122)
V1: Removing PWL point (9.12912e-005,-0.0122)
V1: Removing PWL point (9.13667e-005,-0.0122)
V1: Removing PWL point (9.14148e-005,-0.0122)
V1: Removing PWL point (9.14423e-005,-0.0239)
V1: Removing PWL point (9.14835e-005,-0.0122)
V1: Removing PWL point (9.1511e-005,-0.0239)
V1: Removing PWL point (9.22047e-005,-0.000549)
V1: Removing PWL point (9.22528e-005,-0.000549)
V1: Removing PWL point (9.24245e-005,-0.0122)
V1: Removing PWL point (9.24794e-005,-0.0122)
V1: Removing PWL point (9.25481e-005,-0.0122)
V1: Removing PWL point (9.27336e-005,-0.0122)
V1: Removing PWL point (9.33242e-005,-0.0122)
V1: Removing PWL point (9.35715e-005,-0.0122)
V1: Removing PWL point (9.36264e-005,-0.0122)
V1: Removing PWL point (9.37638e-005,-0.000549)
V1: Removing PWL point (9.37913e-005,-0.0122)
V1: Removing PWL point (9.38325e-005,-0.0122)
V1: Removing PWL point (9.40454e-005,-0.0122)
V1: Removing PWL point (9.41691e-005,-0.000549)
V1: Removing PWL point (9.42377e-005,-0.0122)
V1: Removing PWL point (9.4279e-005,-0.0122)
V1: Removing PWL point (9.43957e-005,-0.0122)
V1: Removing PWL point (9.47391e-005,-0.0122)
V1: Removing PWL point (9.48353e-005,-0.0355)
V1: Removing PWL point (9.51238e-005,-0.0122)
V1: Removing PWL point (9.51993e-005,-0.0122)
V1: Removing PWL point (9.53367e-005,-0.0122)
V1: Removing PWL point (9.54191e-005,-0.000549)
V1: Removing PWL point (9.54466e-005,-0.0122)
V1: Removing PWL point (9.57625e-005,-0.0122)
V1: Removing PWL point (9.5893e-005,-0.0122)
V1: Removing PWL point (9.6106e-005,-0.0122)
V1: Removing PWL point (9.61472e-005,-0.0122)
V1: Removing PWL point (9.62159e-005,-0.0122)
V1: Removing PWL point (9.63738e-005,-0.0122)
V1: Removing PWL point (9.66005e-005,-0.0122)
V1: Removing PWL point (9.67104e-005,-0.0122)
V1: Removing PWL point (9.68203e-005,-0.0122)
V1: Removing PWL point (9.68684e-005,-0.000549)
V1: Removing PWL point (9.69233e-005,-0.0122)
V1: Removing PWL point (9.70881e-005,-0.0122)
V1: Removing PWL point (9.72255e-005,-0.0122)
V1: Removing PWL point (9.73079e-005,-0.0122)
V1: Removing PWL point (9.73904e-005,-0.0122)
V1: Removing PWL point (9.76857e-005,-0.0122)
V1: Removing PWL point (9.78093e-005,-0.0122)
V1: Removing PWL point (9.79261e-005,-0.0122)
V1: Removing PWL point (9.81184e-005,-0.0122)
V1: Removing PWL point (9.83794e-005,-0.0122)
V1: Removing PWL point (9.85168e-005,-0.0122)
V1: Removing PWL point (9.86748e-005,-0.000549)
V1: Removing PWL point (9.8819e-005,-0.0122)
V1: Removing PWL point (9.90319e-005,-0.0122)
V1: Removing PWL point (9.90525e-005,-0.000549)
V1: Removing PWL point (9.91693e-005,-0.0122)
V1: Removing PWL point (9.9444e-005,-0.0239)
V1: Removing PWL point (9.94784e-005,-0.0239)
V1: Removing PWL point (9.95745e-005,-0.0122)
V1: Removing PWL point (9.97806e-005,-0.000549)
V1: Removing PWL point (9.98218e-005,-0.000549)
V1: Removing PWL point (9.99386e-005,-0.000549)
V1: Removing PWL point (0.000100007,-0.0122)
V1: Removing PWL point (0.000100076,-0.0239)
V1: Removing PWL point (0.000100103,-0.0122)
V1: Removing PWL point (0.000100213,-0.0122)
V1: Removing PWL point (0.00010033,-0.0122)
V1: Removing PWL point (0.000100488,-0.0122)
V1: Removing PWL point (0.000100818,-0.0122)
V1: Removing PWL point (0.000100907,-0.0122)
V1: Removing PWL point (0.000101127,-0.0122)
V1: Removing PWL point (0.00010125,-0.0122)
V1: Removing PWL point (0.000101292,-0.0122)
V1: Removing PWL point (0.000101456,-0.0122)
V1: Removing PWL point (0.000101511,-0.000549)
V1: Removing PWL point (0.000101553,-0.000549)
V1: Removing PWL point (0.000102219,-0.0122)
V1: Removing PWL point (0.000102878,-0.0239)
V1: Removing PWL point (0.000102974,-0.0239)
V1: Removing PWL point (0.000103002,-0.0122)
V1: Removing PWL point (0.00010305,-0.0122)
V1: Removing PWL point (0.000103084,-0.0122)
V1: Removing PWL point (0.000103126,-0.0122)
V1: Removing PWL point (0.000103366,-0.000549)
V1: Removing PWL point (0.000103414,-0.000549)
V1: Removing PWL point (0.000103448,-0.0122)
V1: Removing PWL point (0.000103483,-0.000549)
V1: Removing PWL point (0.000103648,-0.000549)
V1: Removing PWL point (0.000103689,-0.0122)
V1: Removing PWL point (0.000103998,-0.0122)
V1: Removing PWL point (0.000104204,-0.0239)
V1: Removing PWL point (0.000104279,-0.0122)
V1: Removing PWL point (0.000104417,-0.0122)
V1: Removing PWL point (0.000104492,-0.0122)
V1: Removing PWL point (0.000104595,-0.0122)
V1: Removing PWL point (0.000104849,-0.0122)
V1: Removing PWL point (0.000105007,-0.0122)
V1: Removing PWL point (0.000105152,-0.0122)
V1: Removing PWL point (0.000105763,-0.0239)
V1: Removing PWL point (0.000105845,-0.0239)
V1: Removing PWL point (0.000105997,-0.0122)
V1: Removing PWL point (0.000106072,-0.0122)
V1: Removing PWL point (0.000106223,-0.000549)
V1: Removing PWL point (0.000106814,-0.0122)
V1: Removing PWL point (0.000106951,-0.0122)
V1: Removing PWL point (0.000106986,-0.0122)
V1: Removing PWL point (0.00010702,-0.0122)
V1: Removing PWL point (0.000107082,-0.0122)
V1: Removing PWL point (0.000107253,-0.0122)
V1: Removing PWL point (0.00010735,-0.0122)
V1: Removing PWL point (0.000107398,-0.0122)
V1: Removing PWL point (0.000107666,-0.000549)
V1: Removing PWL point (0.000107748,-0.0122)
V1: Removing PWL point (0.00010781,-0.0122)
V1: Removing PWL point (0.000107878,-0.000549)
V1: Removing PWL point (0.000107927,-0.0122)
V1: Removing PWL point (0.000107975,-0.0122)
V1: Removing PWL point (0.000108043,-0.0122)
V1: Removing PWL point (0.0001084,-0.0122)
V1: Removing PWL point (0.000108462,-0.0122)
V1: Removing PWL point (0.000108545,-0.0122)
V1: Removing PWL point (0.000108675,-0.0239)
V1: Removing PWL point (0.000108765,-0.0122)
V1: Removing PWL point (0.000108991,-0.0122)
V1: Removing PWL point (0.000109108,-0.0239)
V1: Removing PWL point (0.000109135,-0.0122)
V1: Removing PWL point (0.000109671,-0.0122)
V1: Removing PWL point (0.000109905,-0.0122)
V1: Removing PWL point (0.000109966,-0.0122)
V1: Removing PWL point (0.000110015,-0.0122)
V1: Removing PWL point (0.000110076,-0.0122)
V1: Removing PWL point (0.000110234,-0.0122)
V1: Removing PWL point (0.000110592,-0.0122)
V1: Removing PWL point (0.000110688,-0.0122)
V1: Removing PWL point (0.000110921,-0.0122)
V1: Removing PWL point (0.000111244,-0.0122)
V1: Removing PWL point (0.000111725,-0.0122)
V1: Removing PWL point (0.000112302,-0.000549)
V1: Removing PWL point (0.000112364,-0.0122)
V1: Removing PWL point (0.000112576,-0.0122)
V1: Removing PWL point (0.000112721,-0.0122)
V1: Removing PWL point (0.000113119,-0.0122)
V1: Removing PWL point (0.000113208,-0.0122)
V1: Removing PWL point (0.000113332,-0.0122)
V1: Removing PWL point (0.000113607,-0.0239)
V1: Removing PWL point (0.000113675,-0.0122)
V1: Removing PWL point (0.000113854,-0.0122)
V1: Removing PWL point (0.000113957,-0.0122)
V1: Removing PWL point (0.000114342,-0.0122)
V1: Removing PWL point (0.000114465,-0.0122)
V1: Removing PWL point (0.000114568,-0.000549)
V1: Removing PWL point (0.000114816,-0.0122)
V1: Removing PWL point (0.00011496,-0.0122)
V1: Removing PWL point (0.000115097,-0.0122)
V1: Removing PWL point (0.000115166,-0.0122)
V1: Removing PWL point (0.000115235,-0.0122)
V1: Removing PWL point (0.000115269,-0.0239)
V1: Removing PWL point (0.00011542,-0.0122)
V1: Removing PWL point (0.000115516,-0.0122)
V1: Removing PWL point (0.000115592,-0.0122)
V1: Removing PWL point (0.000116066,0.0111)
V1: Removing PWL point (0.000116272,-0.0122)
V1: Removing PWL point (0.000116519,-0.0122)
V1: Removing PWL point (0.000116629,-0.0239)
V1: Removing PWL point (0.000116656,-0.0122)
V1: Removing PWL point (0.000116677,-0.0239)
V1: Removing PWL point (0.00011689,-0.0122)
V1: Removing PWL point (0.000116959,-0.0122)
V1: Removing PWL point (0.000117007,-0.0122)
V1: Removing PWL point (0.000117034,-0.0239)
V1: Removing PWL point (0.000117117,-0.0122)
V1: Removing PWL point (0.000117281,-0.0122)
V1: Removing PWL point (0.000117384,-0.000549)
V1: Removing PWL point (0.0001177,-0.0122)
V1: Removing PWL point (0.000117742,-0.000549)
V1: Removing PWL point (0.000117762,-0.0122)
V1: Removing PWL point (0.000117954,-0.0122)
V1: Removing PWL point (0.000118312,-0.0122)
V1: Removing PWL point (0.000118401,-0.0122)
V1: Removing PWL point (0.000118442,-0.0122)
V1: Removing PWL point (0.000118497,-0.0122)
V1: Removing PWL point (0.000118683,-0.0122)
V1: Removing PWL point (0.000118786,-0.000549)
V1: Removing PWL point (0.00011893,-0.0122)
V1: Removing PWL point (0.000118998,-0.0122)
V1: Removing PWL point (0.00011906,-0.0122)
V1: Removing PWL point (0.000119143,-0.000549)
V1: Removing PWL point (0.000119479,-0.0122)
V1: Removing PWL point (0.000119885,-0.0239)
V1: Removing PWL point (0.000119994,-0.0122)
V1: Removing PWL point (0.000120029,-0.0122)
V1: Removing PWL point (0.000120839,-0.0122)
V1: Removing PWL point (0.00012097,-0.0122)
V1: Removing PWL point (0.000121121,-0.0122)
V1: Removing PWL point (0.000121347,-0.0239)
V1: Removing PWL point (0.000121382,-0.0239)
V1: Removing PWL point (0.000121512,-0.0122)
V1: Removing PWL point (0.000121554,-0.0122)
V1: Removing PWL point (0.000121588,-0.0122)
V1: Removing PWL point (0.000121712,-0.0122)
V1: Removing PWL point (0.000122213,-0.0122)
V1: Removing PWL point (0.000122522,-0.0122)
V1: Removing PWL point (0.00012279,-0.0122)
V1: Removing PWL point (0.000122817,-0.0122)
V1: Removing PWL point (0.000123071,-0.0122)
V1: Removing PWL point (0.000123147,-0.0239)
V1: Removing PWL point (0.000123209,-0.0122)
V1: Removing PWL point (0.000124328,-0.0239)
V1: Removing PWL point (0.000124376,-0.0239)
V1: Removing PWL point (0.000124809,-0.0122)
V1: Removing PWL point (0.000124953,-0.000549)
V1: Removing PWL point (0.000125345,-0.0122)
V1: Removing PWL point (0.000125654,-0.000549)
V1: Removing PWL point (0.000126375,-0.0239)
V1: Removing PWL point (0.000126416,-0.0239)
V1: Removing PWL point (0.000126657,-0.0122)
V1: Removing PWL point (0.000126712,-0.000549)
V1: Removing PWL point (0.00012676,-0.0122)
V1: Removing PWL point (0.00012678,-0.000549)
V1: Removing PWL point (0.000126938,-0.0122)
V1: Removing PWL point (0.000127124,-0.0122)
V1: Removing PWL point (0.000127522,-0.0122)
V1: Removing PWL point (0.000127639,-0.0122)
V1: Removing PWL point (0.000127749,-0.0122)
V1: Removing PWL point (0.000128188,-0.0239)
V1: Removing PWL point (0.000128216,-0.0122)
V1: Removing PWL point (0.000128312,-0.0122)
V1: Removing PWL point (0.00012836,-0.0122)
V1: Removing PWL point (0.000128525,-0.000549)
V1: Removing PWL point (0.000128573,-0.000549)
V1: Removing PWL point (0.000128978,-0.0122)
V1: Removing PWL point (0.000129033,-0.0122)
V1: Removing PWL point (0.000129074,-0.0122)
V1: Removing PWL point (0.000129679,-0.000549)
V1: Removing PWL point (0.000129789,-0.0122)
V1: Removing PWL point (0.000130043,-0.000549)
V1: Removing PWL point (0.0001304,-0.0122)
V1: Removing PWL point (0.000130489,-0.0122)
V1: Removing PWL point (0.000130572,-0.0122)
V1: Removing PWL point (0.00013062,-0.0239)
V1: Removing PWL point (0.000130695,-0.0122)
V1: Removing PWL point (0.000130737,-0.0122)
V1: Removing PWL point (0.000131005,-0.0239)
V1: Removing PWL point (0.000131053,-0.0122)
V1: Removing PWL point (0.000131163,-0.0122)
V1: Removing PWL point (0.000131245,-0.0122)
V1: Removing PWL point (0.000131437,-0.000549)
V1: Removing PWL point (0.000131561,-0.000549)
V1: Removing PWL point (0.000131636,-0.000549)
V1: Removing PWL point (0.000131966,-0.0122)
V1: Removing PWL point (0.000132076,-0.0122)
V1: Removing PWL point (0.000132145,-0.0122)
V1: Removing PWL point (0.000132241,-0.0122)
V1: Removing PWL point (0.000132495,-0.0122)
V1: Removing PWL point (0.000132866,-0.0122)
V1: Removing PWL point (0.000133072,-0.0122)
V1: Removing PWL point (0.000133202,-0.000549)
V1: Removing PWL point (0.000133347,-0.000549)
V1: Removing PWL point (0.000133697,-0.0122)
V1: Removing PWL point (0.000133972,-0.0122)
V1: Removing PWL point (0.000134088,-0.0122)
V1: Removing PWL point (0.00013415,-0.0122)
V1: Removing PWL point (0.000134288,-0.0122)
V1: Removing PWL point (0.000134349,-0.0122)
V1: Removing PWL point (0.000134398,-0.0122)
V1: Removing PWL point (0.000134473,-0.000549)
V1: Removing PWL point (0.000134535,-0.0122)
V1: Removing PWL point (0.000134762,-0.0122)
V1: Removing PWL point (0.000134961,-0.0122)
V1: Removing PWL point (0.000135029,-0.000549)
V1: Removing PWL point (0.000135064,-0.0122)
V1: Removing PWL point (0.0001354,-0.0122)
V1: Removing PWL point (0.000135503,-0.0122)
V1: Removing PWL point (0.000135641,-0.0122)
V1: Removing PWL point (0.000135744,-0.0122)
V1: Removing PWL point (0.000135771,-0.0122)
V1: Removing PWL point (0.000136012,-0.0122)
V1: Removing PWL point (0.000136053,-0.000549)
V1: Removing PWL point (0.000136204,-0.0122)
V1: Removing PWL point (0.000136266,-0.0122)
V1: Removing PWL point (0.000136396,-0.0122)
V1: Removing PWL point (0.00013674,-0.0122)
V1: Removing PWL point (0.000136843,-0.0239)
V1: Removing PWL point (0.000136877,-0.0239)
V1: Removing PWL point (0.000137035,-0.0122)
V1: Removing PWL point (0.000137433,-0.0122)
V1: Removing PWL point (0.000137543,-0.0122)
V1: Removing PWL point (0.000137742,-0.0122)
V1: Removing PWL point (0.000137804,-0.0122)
V1: Removing PWL point (0.000137839,-0.0122)
V1: Removing PWL point (0.000137894,-0.0122)
V1: Removing PWL point (0.000138017,-0.0122)
V1: Removing PWL point (0.000138203,-0.0122)
V1: Removing PWL point (0.000138237,-0.0122)
V1: Removing PWL point (0.000138271,-0.0122)
V1: Removing PWL point (0.000138498,-0.0239)
V1: Removing PWL point (0.000138635,-0.0239)
V1: Removing PWL point (0.000138835,-0.0122)
V1: Removing PWL point (0.000138869,-0.0122)
V1: Removing PWL point (0.00013891,-0.0122)
V1: Removing PWL point (0.000139006,-0.0122)
V1: Removing PWL point (0.000139508,-0.0239)
V1: Removing PWL point (0.000139837,-0.0122)
V1: Removing PWL point (0.000140133,-0.0122)
V1: Removing PWL point (0.000140236,-0.0122)
V1: Removing PWL point (0.000140263,-0.0239)
V1: Removing PWL point (0.000140435,-0.0122)
V1: Removing PWL point (0.000140607,-0.0122)
V1: Removing PWL point (0.000140957,-0.0239)
V1: Removing PWL point (0.000141177,-0.0122)
V1: Removing PWL point (0.000141252,-0.0122)
V1: Removing PWL point (0.000141438,-0.0122)
V1: Removing PWL point (0.000141513,-0.0239)
V1: Removing PWL point (0.000141548,-0.0122)
V1: Removing PWL point (0.000142111,-0.0122)
V1: Removing PWL point (0.000142255,-0.0122)
V1: Removing PWL point (0.000142482,-0.0122)
V1: Removing PWL point (0.000142647,-0.000549)
V1: Removing PWL point (0.000142729,-0.0122)
V1: Removing PWL point (0.000142887,-0.0122)
V1: Removing PWL point (0.000143024,-0.0239)
V1: Removing PWL point (0.000143134,-0.0239)
V1: Removing PWL point (0.000143244,-0.0239)
V1: Removing PWL point (0.000143519,-0.0122)
V1: Removing PWL point (0.000143588,-0.0122)
V1: Removing PWL point (0.000143725,-0.0122)
V1: Removing PWL point (0.000144061,-0.0122)
V1: Removing PWL point (0.000144233,-0.0122)
V1: Removing PWL point (0.000144549,-0.0122)
V1: Removing PWL point (0.000144645,-0.0122)
V1: Removing PWL point (0.000144824,-0.0122)
V1: Removing PWL point (0.000145092,-0.0122)
V1: Removing PWL point (0.000145126,-0.0239)
V1: Removing PWL point (0.000145147,-0.0122)
V1: Removing PWL point (0.000145181,-0.0122)
V1: Removing PWL point (0.000145435,-0.000549)
V1: Removing PWL point (0.000145504,-0.000549)
V1: Removing PWL point (0.0001456,-0.0122)
V1: Removing PWL point (0.000145682,-0.0122)
V1: Removing PWL point (0.000145765,-0.0122)
V1: Removing PWL point (0.000145882,-0.0122)
V1: Removing PWL point (0.00014593,-0.0239)
V1: Removing PWL point (0.000145957,-0.0122)
V1: Removing PWL point (0.000145998,-0.0122)
V1: Removing PWL point (0.000146568,-0.0122)
V1: Removing PWL point (0.000146768,-0.0122)
V1: Removing PWL point (0.000146946,-0.0122)
V1: Removing PWL point (0.000146994,-0.0122)
V1: Removing PWL point (0.00014753,-0.000549)
V1: Removing PWL point (0.000147722,-0.0122)
V1: Removing PWL point (0.00014786,-0.0239)
V1: Removing PWL point (0.000148093,-0.0239)
V1: Removing PWL point (0.000148423,-0.0122)
V1: Removing PWL point (0.000148924,-0.0122)
V1: Removing PWL point (0.000148986,-0.0122)
V1: Removing PWL point (0.000149075,-0.000549)
V1: Removing PWL point (0.000149268,-0.0122)
V1: Removing PWL point (0.00014933,-0.0122)
V1: Removing PWL point (0.000149501,-0.0122)
V1: Removing PWL point (0.000149742,-0.0239)
V1: Removing PWL point (0.000149803,-0.0122)
V1: Removing PWL point (0.000149879,-0.0122)
V1: Removing PWL point (0.00015025,-0.000549)
V1: Removing PWL point (0.000150277,-0.0122)
V1: Removing PWL point (0.000150483,-0.0122)
V1: Removing PWL point (0.000150532,-0.0122)
V1: Removing PWL point (0.000150841,-0.0122)
V1: Removing PWL point (0.000150951,-0.0239)
V1: Removing PWL point (0.000151033,-0.0239)
V1: Removing PWL point (0.000151115,-0.0122)
V1: Removing PWL point (0.000151431,-0.0122)
V1: Removing PWL point (0.00015174,-0.0122)
V1: Removing PWL point (0.00015194,-0.0122)
V1: Removing PWL point (0.000152256,-0.0122)
V1: Removing PWL point (0.000152352,-0.0122)
V1: Removing PWL point (0.000152846,-0.0122)
V1: Removing PWL point (0.000153142,-0.0122)
V1: Removing PWL point (0.000153251,-0.0122)
V1: Removing PWL point (0.000153396,-0.0122)
V1: Removing PWL point (0.000153444,-0.0122)
V1: Removing PWL point (0.000153485,-0.000549)
V1: Removing PWL point (0.000153643,-0.0122)
V1: Removing PWL point (0.000154007,-0.0122)
V1: Removing PWL point (0.000154103,-0.0122)
V1: Removing PWL point (0.000154508,-0.0122)
V1: Removing PWL point (0.000154646,-0.0122)
V1: Removing PWL point (0.000154714,-0.000549)
V1: Removing PWL point (0.000154831,-0.0122)
V1: Removing PWL point (0.000154941,-0.0122)
V1: Removing PWL point (0.000154982,-0.000549)
V1: Removing PWL point (0.000155223,-0.0122)
V1: Removing PWL point (0.000155333,-0.0122)
V1: Removing PWL point (0.000155422,-0.0122)
V1: Removing PWL point (0.000155477,-0.0122)
V1: Removing PWL point (0.000155621,-0.0122)
V1: Removing PWL point (0.000155717,-0.0122)
V1: Removing PWL point (0.00015582,-0.0239)
V1: Removing PWL point (0.000156061,-0.0239)
V1: Removing PWL point (0.000156157,-0.0122)
V1: Removing PWL point (0.000156212,-0.0122)
V1: Removing PWL point (0.00015628,-0.0122)
V1: Removing PWL point (0.000156624,-0.0122)
V1: Removing PWL point (0.000156651,-0.000549)
V1: Removing PWL point (0.000156782,-0.0122)
V1: Removing PWL point (0.000157256,-0.0122)
V1: Removing PWL point (0.000157434,-0.0122)
V1: Removing PWL point (0.000157606,-0.0122)
V1: Removing PWL point (0.000157743,-0.0122)
V1: Removing PWL point (0.000158018,-0.0122)
V1: Removing PWL point (0.000158073,-0.0122)
V1: Removing PWL point (0.000158568,-0.0122)
V1: Removing PWL point (0.00015909,-0.0122)
V1: Removing PWL point (0.000159165,-0.0122)
V1: Removing PWL point (0.000159289,0.0111)
V1: Removing PWL point (0.000159502,-0.000549)
V1: Removing PWL point (0.000159983,-0.0122)
V1: Removing PWL point (0.000160106,-0.0122)
V1: Removing PWL point (0.000160154,-0.0122)
V1: Removing PWL point (0.000160333,-0.0122)
V1: Removing PWL point (0.00016047,-0.0122)
V1: Removing PWL point (0.000160505,-0.0122)
V1: Removing PWL point (0.000160559,-0.0239)
V1: Removing PWL point (0.000160594,-0.0239)
V1: Removing PWL point (0.000160724,-0.0122)
V1: Removing PWL point (0.000161136,-0.000549)
V1: Removing PWL point (0.000161233,-0.000549)
V1: Removing PWL point (0.000161274,-0.000549)
V1: Removing PWL point (0.000161308,-0.000549)
V1: Removing PWL point (0.000161377,-0.000549)
V1: Removing PWL point (0.000161439,-0.0122)
V1: Removing PWL point (0.000161603,-0.0122)
V1: Removing PWL point (0.0001617,-0.000549)
V1: Removing PWL point (0.000161864,-0.0122)
V1: Removing PWL point (0.000161995,-0.0122)
V1: Removing PWL point (0.00016205,-0.0122)
V1: Removing PWL point (0.000162098,-0.0239)
V1: Removing PWL point (0.000162393,-0.000549)
V1: Removing PWL point (0.000162538,-0.0122)
V1: Removing PWL point (0.000162867,-0.0122)
V1: Removing PWL point (0.000163094,-0.0122)
V1: Removing PWL point (0.000163169,-0.0122)
V1: Removing PWL point (0.000163218,-0.0122)
V1: Removing PWL point (0.000163595,-0.0239)
V1: Removing PWL point (0.000163678,-0.0239)
V1: Removing PWL point (0.000164028,-0.000549)
V1: Removing PWL point (0.000164159,-0.000549)
V1: Removing PWL point (0.000164193,-0.000549)
V1: Removing PWL point (0.000164426,-0.000549)
V1: Removing PWL point (0.000164687,-0.0122)
V1: Removing PWL point (0.000165017,-0.0239)
V1: Removing PWL point (0.000165065,-0.0122)
V1: Removing PWL point (0.000165264,-0.0122)
V1: Removing PWL point (0.000165367,-0.0122)
V1: Removing PWL point (0.000165525,-0.0122)
V1: Removing PWL point (0.000165615,-0.0122)
V1: Removing PWL point (0.000165738,-0.0122)
V1: Removing PWL point (0.000165814,-0.000549)
V1: Removing PWL point (0.000165869,-0.0122)
V1: Removing PWL point (0.000165999,-0.000549)
V1: Removing PWL point (0.00016613,-0.000549)
V1: Removing PWL point (0.000166308,-0.0122)
V1: Removing PWL point (0.000166377,-0.0122)
V1: Removing PWL point (0.000166432,-0.0122)
V1: Removing PWL point (0.000166473,-0.0122)
V1: Removing PWL point (0.000166501,-0.0239)
V1: Removing PWL point (0.000166707,-0.0239)
V1: Removing PWL point (0.00016683,-0.0122)
V1: Removing PWL point (0.000166913,-0.0122)
V1: Removing PWL point (0.000166947,-0.0122)
V1: Removing PWL point (0.00016705,-0.000549)
V1: Removing PWL point (0.000167318,-0.0122)
V1: Removing PWL point (0.000167476,-0.0122)
V1: Removing PWL point (0.000167751,-0.0122)
V1: Removing PWL point (0.000167778,-0.000549)
V1: Removing PWL point (0.000167813,-0.000549)
V1: Removing PWL point (0.000167998,-0.0122)
V1: Removing PWL point (0.000168829,-0.000549)
V1: Removing PWL point (0.000168863,-0.000549)
V1: Removing PWL point (0.000168918,-0.000549)
V1: Removing PWL point (0.000168973,-0.0122)
V1: Removing PWL point (0.000169035,-0.000549)
V1: Removing PWL point (0.000169097,-0.000549)
V1: Removing PWL point (0.000169234,-0.0239)
V1: Removing PWL point (0.000169482,-0.0239)
V1: Removing PWL point (0.000169598,-0.0122)
V1: Removing PWL point (0.00016977,-0.0122)
V1: Removing PWL point (0.00017021,-0.0239)
V1: Removing PWL point (0.000170381,-0.0122)
V1: Removing PWL point (0.000170457,-0.0122)
V1: Removing PWL point (0.000170642,-0.0122)
V1: Removing PWL point (0.000170677,-0.000549)
V1: Removing PWL point (0.000170725,-0.000549)
V1: Removing PWL point (0.000170855,-0.0122)
V1: Removing PWL point (0.00017091,-0.0122)
V1: Removing PWL point (0.000170958,-0.0122)
V1: Removing PWL point (0.000171144,-0.0122)
V1: Removing PWL point (0.000171274,-0.0239)
V1: Removing PWL point (0.000171329,-0.0239)
V1: Removing PWL point (0.000171453,-0.0239)
V1: Removing PWL point (0.0001717,-0.0122)
V1: Removing PWL point (0.000171755,-0.0122)
V1: Removing PWL point (0.000171934,-0.0122)
V1: Removing PWL point (0.000172201,-0.0122)
V1: Removing PWL point (0.000172284,-0.0122)
V1: Removing PWL point (0.000172593,-0.000549)
V1: Removing PWL point (0.000172765,-0.0122)
V1: Removing PWL point (0.000173129,-0.0239)
V1: Removing PWL point (0.000173204,-0.0239)
V1: Removing PWL point (0.000173225,-0.0122)
V1: Removing PWL point (0.000173273,-0.0122)
V1: Removing PWL point (0.000173548,-0.0122)
V1: Removing PWL point (0.000173658,-0.000549)
V1: Removing PWL point (0.000173864,-0.0122)
V1: Removing PWL point (0.000174633,-0.0122)
V1: Removing PWL point (0.000175011,-0.0122)
V1: Removing PWL point (0.000175079,-0.0122)
V1: Removing PWL point (0.000175114,-0.0122)
V1: Removing PWL point (0.000175285,-0.000549)
V1: Removing PWL point (0.000175787,-0.0122)
V1: Removing PWL point (0.000175917,-0.0122)
V1: Removing PWL point (0.00017624,-0.0122)
V1: Removing PWL point (0.000176645,-0.000549)
V1: Removing PWL point (0.000176707,-0.000549)
V1: Removing PWL point (0.000176865,-0.0122)
V1: Removing PWL point (0.000176906,-0.0122)
V1: Removing PWL point (0.000176968,-0.000549)
V1: Removing PWL point (0.000177119,-0.000549)
V1: Removing PWL point (0.000177435,-0.0122)
V1: Removing PWL point (0.000177552,-0.0239)
V1: Removing PWL point (0.000177634,-0.0239)
V1: Removing PWL point (0.000177689,-0.0239)
V1: Removing PWL point (0.000178053,-0.0122)
V1: Removing PWL point (0.00017828,-0.000549)
V1: Removing PWL point (0.000178486,-0.0122)
V1: Removing PWL point (0.000178672,-0.0239)
V1: Removing PWL point (0.000178768,-0.0239)
V1: Removing PWL point (0.000178802,-0.0239)
V1: Removing PWL point (0.000178843,-0.0122)
V1: Removing PWL point (0.000178953,-0.0122)
V1: Removing PWL point (0.000179097,-0.0122)
V1: Removing PWL point (0.000179331,-0.0122)
V1: Removing PWL point (0.000179413,-0.0122)
V1: Removing PWL point (0.000179461,-0.0239)
V1: Removing PWL point (0.000179489,-0.0122)
V1: Removing PWL point (0.000179578,-0.0239)
V1: Removing PWL point (0.000179867,-0.0122)
V1: Removing PWL point (0.000179949,-0.0122)
V1: Removing PWL point (0.000180238,-0.0122)
V1: Removing PWL point (0.000180464,-0.0239)
V1: Removing PWL point (0.000180526,-0.0122)
V1: Removing PWL point (0.000180567,-0.0122)
V1: Removing PWL point (0.000180945,-0.0122)
V1: Removing PWL point (0.000181,-0.0122)
V1: Removing PWL point (0.000181536,-0.000549)
V1: Removing PWL point (0.000181584,-0.0122)
V1: Removing PWL point (0.00018179,-0.000549)
V1: Removing PWL point (0.000182016,-0.000549)
V1: Removing PWL point (0.000182174,-0.0239)
V1: Removing PWL point (0.000182319,-0.0239)
V1: Removing PWL point (0.000182374,-0.0239)
V1: Removing PWL point (0.000182477,-0.0239)
V1: Removing PWL point (0.000182538,-0.0122)
V1: Removing PWL point (0.000182868,-0.0122)
V1: Removing PWL point (0.000182903,-0.000549)
V1: Removing PWL point (0.000182999,-0.000549)
V1: Removing PWL point (0.000183239,-0.0122)
V1: Removing PWL point (0.00018328,-0.0122)
V1: Removing PWL point (0.000183363,-0.0239)
V1: Removing PWL point (0.000183658,-0.0122)
V1: Removing PWL point (0.000183802,-0.0122)
V1: Removing PWL point (0.00018418,-0.0122)
V1: Removing PWL point (0.000184448,-0.0122)
V1: Removing PWL point (0.000184523,-0.0122)
V1: Removing PWL point (0.000184819,-0.000549)
V1: Removing PWL point (0.000184867,-0.000549)
V1: Removing PWL point (0.000184915,-0.0122)
V1: Removing PWL point (0.00018497,-0.0122)
V1: Removing PWL point (0.000185265,-0.0122)
V1: Removing PWL point (0.000185293,-0.0239)
V1: Removing PWL point (0.000185588,-0.0122)
V1: Removing PWL point (0.00018565,-0.0122)
V1: Removing PWL point (0.000185712,-0.0122)
V1: Removing PWL point (0.000185822,-0.000549)
V1: Removing PWL point (0.00018589,-0.0122)
V1: Removing PWL point (0.000186089,-0.0122)
V1: Removing PWL point (0.000186323,-0.0122)
V1: Removing PWL point (0.000186611,-0.000549)
V1: Removing PWL point (0.000186715,-0.0122)
V1: Removing PWL point (0.000186783,-0.0122)
V1: Removing PWL point (0.000186872,-0.0122)
V1: Removing PWL point (0.000187079,-0.0122)
V1: Removing PWL point (0.00018723,-0.0239)
V1: Removing PWL point (0.000187635,-0.0122)
V1: Removing PWL point (0.000187855,-0.0122)
V1: Removing PWL point (0.000188191,-0.0122)
V1: Removing PWL point (0.000188308,-0.000549)
V1: Removing PWL point (0.000188329,-0.0122)
V1: Removing PWL point (0.000188363,-0.0122)
V1: Removing PWL point (0.000188699,-0.0239)
V1: Removing PWL point (0.000188741,-0.0239)
V1: Removing PWL point (0.000188871,-0.0239)
V1: Removing PWL point (0.000189084,-0.0122)
V1: Removing PWL point (0.000189221,-0.000549)
V1: Removing PWL point (0.000189297,-0.000549)
V1: Removing PWL point (0.000189407,-0.0122)
V1: Removing PWL point (0.000189544,-0.0122)
V1: Removing PWL point (0.000189819,-0.0122)
V1: Removing PWL point (0.000189901,-0.0239)
V1: Removing PWL point (0.000190389,-0.0122)
V1: Removing PWL point (0.000190417,-0.000549)
V1: Removing PWL point (0.000190513,-0.0122)
V1: Removing PWL point (0.000190623,-0.0122)
V1: Removing PWL point (0.000190987,-0.0122)
V1: Removing PWL point (0.000191028,-0.000549)
V1: Removing PWL point (0.000191179,-0.000549)
V1: Removing PWL point (0.00019155,-0.0122)
V1: Removing PWL point (0.000191612,-0.0239)
V1: Removing PWL point (0.000191728,-0.0239)
V1: Removing PWL point (0.000192216,-0.000549)
V1: Removing PWL point (0.00019225,-0.000549)
V1: Removing PWL point (0.000192326,-0.000549)
V1: Removing PWL point (0.000192408,-0.000549)
V1: Removing PWL point (0.000192457,-0.000549)
V1: Removing PWL point (0.000192992,-0.0122)
V1: Removing PWL point (0.000193102,-0.0122)
V1: Removing PWL point (0.000193521,-0.0122)
V1: Removing PWL point (0.00019359,-0.0122)
V1: Removing PWL point (0.000193652,-0.0122)
V1: Removing PWL point (0.000193707,-0.0122)
V1: Removing PWL point (0.000193816,-0.000549)
V1: Removing PWL point (0.000193974,-0.000549)
V1: Removing PWL point (0.000194016,-0.0122)
V1: Removing PWL point (0.00019405,-0.000549)
V1: Removing PWL point (0.000194105,-0.000549)
V1: Removing PWL point (0.000194242,-0.0122)
V1: Removing PWL point (0.000194325,-0.000549)
V1: Removing PWL point (0.0001944,-0.0122)
V1: Removing PWL point (0.000194448,-0.0122)
V1: Removing PWL point (0.000194524,-0.0122)
V1: Removing PWL point (0.000194579,-0.0122)
V1: Removing PWL point (0.000194668,-0.0122)
V1: Removing PWL point (0.000195094,-0.0122)
V1: Removing PWL point (0.00019517,-0.000549)
V1: Removing PWL point (0.000195245,-0.0122)
V1: Removing PWL point (0.000195362,-0.0122)
V1: Removing PWL point (0.000195595,-0.0122)
V1: Removing PWL point (0.000195719,-0.0122)
V1: Removing PWL point (0.000195836,-0.0122)
V1: Removing PWL point (0.000195911,-0.000549)
V1: Removing PWL point (0.000195946,-0.000549)
V1: Removing PWL point (0.00019622,-0.0122)
V1: Removing PWL point (0.00019631,-0.0122)
V1: Removing PWL point (0.00019642,-0.0239)
V1: Removing PWL point (0.000196502,-0.0239)
V1: Removing PWL point (0.000196578,-0.0239)
V1: Removing PWL point (0.000196736,-0.0122)
V1: Removing PWL point (0.000196825,-0.0122)
V1: Removing PWL point (0.000196914,-0.000549)
V1: Removing PWL point (0.000196962,-0.000549)
V1: Removing PWL point (0.000197079,-0.0122)
V1: Removing PWL point (0.00019767,-0.0122)
V1: Removing PWL point (0.000197773,-0.0122)
V1: Removing PWL point (0.000197814,-0.0122)
V1: Removing PWL point (0.000197903,-0.0239)
V1: Removing PWL point (0.000198041,-0.0122)
V1: Removing PWL point (0.000198185,-0.0122)
V1: Removing PWL point (0.000198384,-0.0122)
V1: Removing PWL point (0.00019894,-0.0122)
V1: Removing PWL point (0.00019914,-0.0122)
V1: Removing PWL point (0.000199476,-0.0122)
V1: Removing PWL point (0.0001996,-0.0122)
V1: Removing PWL point (0.000199703,-0.0122)
V1: Removing PWL point (0.000199785,-0.0122)
V1: Removing PWL point (0.000199895,-0.0122)
V1: Removing PWL point (0.000200479,-0.000549)
V1: Removing PWL point (0.000200554,-0.0122)
V1: Removing PWL point (0.000200644,-0.0122)
V1: Removing PWL point (0.000200747,-0.0122)
V1: Removing PWL point (0.000201042,-0.0122)
V1: Removing PWL point (0.000201138,-0.0239)
V1: Removing PWL point (0.000201193,-0.0122)
V1: Removing PWL point (0.000201276,-0.0122)
V1: Removing PWL point (0.00020142,-0.0122)
V1: Removing PWL point (0.000201523,-0.0122)
V1: Removing PWL point (0.000201592,-0.000549)
V1: Removing PWL point (0.000201811,-0.0122)
V1: Removing PWL point (0.000201901,-0.0122)
V1: Removing PWL point (0.000201997,-0.000549)
V1: Removing PWL point (0.000202052,-0.0122)
V1: Removing PWL point (0.000202134,-0.0122)
V1: Removing PWL point (0.000202203,-0.000549)
V1: Removing PWL point (0.000202354,-0.000549)
V1: Removing PWL point (0.000202759,-0.0122)
V1: Removing PWL point (0.000202787,-0.0239)
V1: Removing PWL point (0.000202876,-0.0122)
V1: Removing PWL point (0.000202972,-0.0122)
V1: Removing PWL point (0.000203089,-0.0122)
V1: Removing PWL point (0.000203769,-0.0122)
V1: Removing PWL point (0.000203989,-0.0239)
V1: Removing PWL point (0.00020414,-0.0122)
V1: Removing PWL point (0.000204813,-0.000549)
V1: Removing PWL point (0.000204909,-0.0122)
V1: Removing PWL point (0.000205012,-0.0122)
V1: Removing PWL point (0.000205197,-0.000549)
V1: Removing PWL point (0.000205266,-0.0122)
V1: Removing PWL point (0.000205314,-0.000549)
V1: Removing PWL point (0.000205431,-0.0122)
V1: Removing PWL point (0.000205912,-0.0239)
V1: Removing PWL point (0.000205953,-0.0122)
V1: Removing PWL point (0.000206104,-0.0122)
V1: Removing PWL point (0.000206262,-0.000549)
V1: Removing PWL point (0.000206489,-0.0122)
V1: Removing PWL point (0.000206537,-0.0122)
V1: Removing PWL point (0.000206592,-0.0122)
V1: Removing PWL point (0.000206894,-0.0122)
V1: Removing PWL point (0.000206997,-0.0122)
V1: Removing PWL point (0.000207107,-0.0122)
V1: Removing PWL point (0.000207224,-0.000549)
V1: Removing PWL point (0.00020732,-0.0122)
V1: Removing PWL point (0.000207498,-0.0239)
V1: Removing PWL point (0.000207801,-0.0122)
V1: Removing PWL point (0.000207959,-0.000549)
V1: Removing PWL point (0.000208041,-0.0122)
V1: Removing PWL point (0.00020811,-0.000549)
V1: Removing PWL point (0.000208309,-0.000549)
V1: Removing PWL point (0.000208357,-0.0122)
V1: Removing PWL point (0.000209009,-0.0122)
V1: Removing PWL point (0.000209346,-0.0122)
V1: Removing PWL point (0.000209422,-0.0122)
V1: Removing PWL point (0.000209538,-0.0122)
V1: Removing PWL point (0.000209621,-0.0122)
V1: Removing PWL point (0.000210211,-0.0239)
V1: Removing PWL point (0.000210369,-0.0239)
V1: Removing PWL point (0.000210445,-0.0239)
V1: Removing PWL point (0.000210493,-0.0122)
V1: Removing PWL point (0.000210582,-0.0122)
V1: Removing PWL point (0.000210637,-0.0122)
V1: Removing PWL point (0.000210782,-0.0122)
V1: Removing PWL point (0.000210823,-0.000549)
V1: Removing PWL point (0.000210878,-0.000549)
V1: Removing PWL point (0.000210994,-0.000549)
V1: Removing PWL point (0.000211187,-0.0122)
V1: Removing PWL point (0.000211386,-0.0122)
V1: Removing PWL point (0.000211475,-0.0122)
V1: Removing PWL point (0.00021151,-0.0122)
V1: Removing PWL point (0.000211571,-0.0122)
V1: Removing PWL point (0.000211606,-0.0122)
V1: Removing PWL point (0.00021175,-0.0122)
V1: Removing PWL point (0.000212052,-0.0122)
V1: Removing PWL point (0.000212444,-0.0122)
V1: Removing PWL point (0.000212609,0.0111)
V1: Removing PWL point (0.000212636,-0.000549)
V1: Removing PWL point (0.000212739,-0.000549)
V1: Removing PWL point (0.000212773,-0.000549)
V1: Removing PWL point (0.00021287,-0.000549)
V1: Removing PWL point (0.000213158,-0.0122)
V1: Removing PWL point (0.000213247,-0.0122)
V1: Removing PWL point (0.000213289,-0.0122)
V1: Removing PWL point (0.000213357,-0.0239)
V1: Removing PWL point (0.000213419,-0.0239)
V1: Removing PWL point (0.000213673,-0.000549)
V1: Removing PWL point (0.000213797,-0.000549)
V1: Removing PWL point (0.000214236,-0.0122)
V1: Removing PWL point (0.000214333,-0.0122)
V1: Removing PWL point (0.000214449,-0.0122)
V1: Removing PWL point (0.00021458,-0.000549)
V1: Removing PWL point (0.000214745,-0.0122)
V1: Removing PWL point (0.000214786,-0.0122)
V1: Removing PWL point (0.000214992,-0.0122)
V1: Removing PWL point (0.000215239,-0.0239)
V1: Removing PWL point (0.000215287,-0.0239)
V1: Removing PWL point (0.000215486,-0.0122)
V1: Removing PWL point (0.000215583,-0.0122)
V1: Removing PWL point (0.000215638,-0.000549)
V1: Removing PWL point (0.000216201,-0.0122)
V1: Removing PWL point (0.000216276,-0.0122)
V1: Removing PWL point (0.000216345,-0.0122)
V1: Removing PWL point (0.0002164,-0.000549)
V1: Removing PWL point (0.000216709,-0.0122)
V1: Removing PWL point (0.000216764,-0.0239)
V1: Removing PWL point (0.000216846,-0.0122)
V1: Removing PWL point (0.000216894,-0.0239)
V1: Removing PWL point (0.000217059,-0.0122)
V1: Removing PWL point (0.000217272,-0.0122)
V1: Removing PWL point (0.000217348,-0.0122)
V1: Removing PWL point (0.000217705,-0.000549)
V1: Removing PWL point (0.000217877,-0.0122)
V1: Removing PWL point (0.000218,-0.0239)
V1: Removing PWL point (0.000218028,-0.0122)
V1: Removing PWL point (0.000218165,-0.0122)
V1: Removing PWL point (0.000218199,-0.0122)
V1: Removing PWL point (0.000218529,-0.0122)
V1: Removing PWL point (0.000218584,-0.0122)
V1: Removing PWL point (0.000218996,-0.0122)
V1: Removing PWL point (0.000219065,-0.000549)
V1: Removing PWL point (0.000219099,-0.0122)
V1: Removing PWL point (0.000219209,-0.000549)
V1: Removing PWL point (0.000219237,-0.0122)
V1: Removing PWL point (0.000219271,-0.000549)
V1: Removing PWL point (0.000219525,-0.0122)
V1: Removing PWL point (0.000219587,-0.0122)
V1: Removing PWL point (0.000219628,-0.0122)
V1: Removing PWL point (0.000219683,-0.0239)
V1: Removing PWL point (0.000219972,-0.0239)
V1: Removing PWL point (0.000219999,-0.0122)
V1: Removing PWL point (0.000220116,-0.0122)
V1: Removing PWL point (0.000220411,-0.0122)
V1: Removing PWL point (0.000220548,-0.0122)
V1: Removing PWL point (0.000220597,-0.0239)
V1: Removing PWL point (0.000220741,-0.0239)
V1: Removing PWL point (0.000220796,-0.0122)
V1: Removing PWL point (0.000220912,-0.0122)
V1: Removing PWL point (0.00022105,-0.0122)
V1: Removing PWL point (0.000221105,-0.0122)
V1: Removing PWL point (0.000221194,-0.0122)
V1: Removing PWL point (0.000221654,-0.0239)
V1: Removing PWL point (0.000222403,-0.0122)
V1: Removing PWL point (0.000222499,-0.0122)
V1: Removing PWL point (0.00022254,-0.0122)
V1: Removing PWL point (0.000222609,-0.0239)
V1: Removing PWL point (0.000222712,-0.0122)
V1: Removing PWL point (0.000223001,-0.0122)
V1: Removing PWL point (0.000223062,-0.0122)
V1: Removing PWL point (0.00022333,-0.0122)
V1: Removing PWL point (0.00022344,-0.0122)
V1: Removing PWL point (0.000223474,-0.0122)
V1: Removing PWL point (0.000224065,-0.0122)
V1: Removing PWL point (0.000224148,-0.0122)
V1: Removing PWL point (0.000224388,-0.0239)
V1: Removing PWL point (0.000224512,-0.0239)
V1: Removing PWL point (0.000224546,-0.0122)
V1: Removing PWL point (0.00022458,-0.0122)
V1: Removing PWL point (0.000224745,-0.0122)
V1: Removing PWL point (0.000224848,-0.0122)
V1: Removing PWL point (0.000224889,-0.0122)
V1: Removing PWL point (0.000225006,-0.0122)
V1: Removing PWL point (0.000225068,-0.000549)
V1: Removing PWL point (0.000225411,-0.0122)
V1: Removing PWL point (0.000225494,-0.000549)
V1: Removing PWL point (0.000225535,-0.0239)
V1: Removing PWL point (0.000226098,-0.0122)
V1: Removing PWL point (0.000226826,-0.0239)
V1: Removing PWL point (0.000227211,-0.0122)
V1: Removing PWL point (0.000227534,-0.0239)
V1: Removing PWL point (0.000227568,-0.0122)
V1: Removing PWL point (0.000227712,-0.0122)
V1: Removing PWL point (0.00022776,-0.000549)
V1: Removing PWL point (0.000227843,-0.000549)
V1: Removing PWL point (0.000227898,-0.0122)
V1: Removing PWL point (0.000228028,-0.0122)
V1: Removing PWL point (0.000228166,-0.0239)
V1: Removing PWL point (0.000228324,-0.0122)
V1: Removing PWL point (0.000228433,-0.0122)
V1: Removing PWL point (0.000228502,-0.0122)
V1: Removing PWL point (0.000228619,-0.0122)
V1: Removing PWL point (0.000228797,-0.000549)
V1: Removing PWL point (0.000228997,-0.0122)
V1: Removing PWL point (0.000229278,-0.0239)
V1: Removing PWL point (0.000229402,-0.0122)
V1: Removing PWL point (0.000229635,-0.0122)
V1: Removing PWL point (0.00022969,-0.0122)
V1: Removing PWL point (0.000229738,-0.000549)
V1: Removing PWL point (0.000229855,-0.0122)
V1: Removing PWL point (0.000230075,-0.0122)
V1: Removing PWL point (0.000230116,-0.0122)
V1: Removing PWL point (0.000230178,-0.0122)
V1: Removing PWL point (0.000230405,-0.0122)
V1: Removing PWL point (0.000230597,-0.0122)
V1: Removing PWL point (0.000231037,-0.0239)
V1: Removing PWL point (0.000231291,-0.0122)
V1: Removing PWL point (0.000231593,-0.000549)
V1: Removing PWL point (0.000231627,-0.0122)
V1: Removing PWL point (0.000231929,-0.0122)
V1: Removing PWL point (0.00023206,-0.0122)
V1: Removing PWL point (0.000232149,-0.0122)
V1: Removing PWL point (0.000232218,-0.0122)
V1: Removing PWL point (0.000232568,-0.0122)
V1: Removing PWL point (0.00023263,-0.0122)
V1: Removing PWL point (0.00023287,-0.0122)
V1: Removing PWL point (0.000233475,-0.0122)
V1: Removing PWL point (0.000233544,-0.0122)
V1: Removing PWL point (0.000234079,-0.0239)
V1: Removing PWL point (0.000234278,-0.0122)
V1: Removing PWL point (0.000234457,-0.0122)
V1: Removing PWL point (0.000234519,-0.000549)
V1: Removing PWL point (0.000234636,-0.0122)
V1: Removing PWL point (0.000234814,-0.0122)
V1: Removing PWL point (0.000235123,-0.000549)
V1: Removing PWL point (0.000235165,-0.0122)
V1: Removing PWL point (0.000235226,-0.0122)
V1: Removing PWL point (0.000235426,-0.0122)
V1: Removing PWL point (0.000235549,-0.0122)
V1: Removing PWL point (0.000235597,-0.0239)
V1: Removing PWL point (0.000235783,-0.0122)
V1: Removing PWL point (0.000235872,-0.0122)
V1: Removing PWL point (0.000236195,-0.000549)
V1: Removing PWL point (0.000236408,-0.000549)
V1: Removing PWL point (0.000236559,-0.0122)
V1: Removing PWL point (0.000236689,-0.0122)
V1: Removing PWL point (0.000237328,-0.0122)
V1: Removing PWL point (0.000237438,-0.0122)
V1: Removing PWL point (0.000237644,-0.0239)
V1: Removing PWL point (0.000237713,-0.0122)
V1: Removing PWL point (0.000237816,-0.000549)
V1: Removing PWL point (0.000238008,-0.000549)
V1: Removing PWL point (0.000238042,-0.000549)
V1: Removing PWL point (0.00023829,-0.0122)
V1: Removing PWL point (0.000238338,-0.0239)
V1: Removing PWL point (0.000238503,-0.0122)
V1: Removing PWL point (0.000238592,-0.0122)
V1: Removing PWL point (0.00023864,-0.0122)
V1: Removing PWL point (0.000239134,-0.0122)
V1: Removing PWL point (0.000239608,-0.0122)
V1: Removing PWL point (0.000239656,-0.0122)
V1: Removing PWL point (0.000239753,-0.0122)
V1: Removing PWL point (0.000239787,-0.000549)
V1: Removing PWL point (0.000239808,-0.0122)
V1: Removing PWL point (0.000240007,-0.000549)
V1: Removing PWL point (0.000240151,-0.0122)
V1: Removing PWL point (0.000240213,-0.0239)
V1: Removing PWL point (0.000240453,-0.0122)
V1: Removing PWL point (0.000240611,-0.0122)
V1: Removing PWL point (0.000240865,-0.0122)
V1: Removing PWL point (0.000240927,-0.0122)
V1: Removing PWL point (0.000241016,-0.000549)
V1: Removing PWL point (0.000241065,-0.0122)
V1: Removing PWL point (0.000241387,-0.0122)
V1: Removing PWL point (0.000241552,-0.0122)
V1: Removing PWL point (0.000241765,-0.000549)
V1: Removing PWL point (0.000241827,-0.0122)
V1: Removing PWL point (0.000241957,-0.000549)
V1: Removing PWL point (0.00024217,-0.0122)
V1: Removing PWL point (0.00024226,-0.0122)
V1: Removing PWL point (0.000242335,-0.0122)
V1: Removing PWL point (0.000242672,-0.0122)
V1: Removing PWL point (0.000243022,-0.0122)
V1: Removing PWL point (0.000243352,-0.0122)
V1: Removing PWL point (0.00024351,-0.0122)
V1: Removing PWL point (0.000243778,-0.0122)
V1: Removing PWL point (0.000244142,-0.0122)
V1: Removing PWL point (0.000244396,-0.000549)
V1: Removing PWL point (0.000244622,-0.000549)
V1: Removing PWL point (0.000244835,-0.0122)
V1: Removing PWL point (0.000244945,-0.0239)
V1: Removing PWL point (0.000245144,-0.0122)
V1: Removing PWL point (0.000245371,-0.0122)
V1: Removing PWL point (0.00024544,-0.000549)
V1: Removing PWL point (0.000245611,-0.000549)
V1: Removing PWL point (0.000245811,-0.0122)
V1: Removing PWL point (0.00024623,-0.0122)
V1: Removing PWL point (0.000246807,-0.0122)
V1: Removing PWL point (0.000246916,-0.0122)
V1: Removing PWL point (0.000247019,-0.0122)
V1: Removing PWL point (0.000247322,-0.0122)
V1: Removing PWL point (0.000247363,-0.000549)
V1: Removing PWL point (0.000247507,-0.000549)
V1: Removing PWL point (0.000247871,-0.0239)
V1: Removing PWL point (0.000248139,-0.0122)
V1: Removing PWL point (0.000248778,-0.0122)
V1: Removing PWL point (0.00024886,-0.000549)
V1: Removing PWL point (0.000248984,-0.0122)
V1: Removing PWL point (0.000249121,-0.0122)
V1: Removing PWL point (0.000249279,-0.0122)
V1: Removing PWL point (0.000249396,-0.0122)
V1: Removing PWL point (0.000249526,-0.0122)
V1: Removing PWL point (0.000249595,-0.0122)
V1: Removing PWL point (0.000249671,-0.0239)
V1: Removing PWL point (0.00024976,-0.0122)
V1: Removing PWL point (0.000249911,-0.000549)
V1: Removing PWL point (0.000249952,-0.0122)
V1: Removing PWL point (0.000250145,-0.000549)
V1: Removing PWL point (0.000250186,-0.000549)
V1: Removing PWL point (0.00025077,-0.0122)
V1: Removing PWL point (0.000250859,-0.0122)
V1: Removing PWL point (0.000250955,-0.0122)
V1: Removing PWL point (0.000250989,-0.0122)
V1: Removing PWL point (0.000251038,-0.0122)
V1: Removing PWL point (0.000251065,-0.0239)
V1: Removing PWL point (0.000251367,-0.0122)
V1: Removing PWL point (0.000251477,-0.0122)
V1: Removing PWL point (0.000251903,-0.0122)
V1: Removing PWL point (0.000251992,-0.0122)
V1: Removing PWL point (0.000252075,-0.0122)
V1: Removing PWL point (0.000252397,-0.0122)
V1: Removing PWL point (0.000252425,-0.0122)
V1: Removing PWL point (0.000252562,-0.0122)
V1: Removing PWL point (0.000252672,-0.0122)
V1: Removing PWL point (0.000252885,-0.0122)
V1: Removing PWL point (0.000252947,-0.0122)
V1: Removing PWL point (0.000253071,-0.0122)
V1: Removing PWL point (0.000253139,-0.000549)
V1: Removing PWL point (0.000253325,-0.000549)
V1: Removing PWL point (0.000253359,-0.0122)
V1: Removing PWL point (0.000253551,-0.0122)
V1: Removing PWL point (0.000253778,-0.0122)
V1: Removing PWL point (0.000253833,-0.0122)
V1: Removing PWL point (0.00025395,-0.0122)
V1: Removing PWL point (0.000254025,-0.0122)
V1: Removing PWL point (0.00025406,-0.0122)
V1: Removing PWL point (0.000255117,-0.000549)
V1: Removing PWL point (0.00025522,-0.0122)
V1: Removing PWL point (0.000255289,-0.0122)
V1: Removing PWL point (0.000255406,-0.000549)
V1: Removing PWL point (0.000255447,-0.0122)
V1: Removing PWL point (0.000255564,-0.0122)
V1: Removing PWL point (0.000255605,-0.0122)
V1: Removing PWL point (0.000255736,-0.0122)
V1: Removing PWL point (0.000255955,-0.0122)
V1: Removing PWL point (0.000256292,-0.0122)
V1: Removing PWL point (0.000256361,-0.0122)
V1: Removing PWL point (0.000256409,-0.0122)
V1: Removing PWL point (0.000256519,-0.0122)
V1: Removing PWL point (0.000256553,-0.000549)
V1: Removing PWL point (0.00025658,-0.0122)
V1: Removing PWL point (0.000256773,-0.000549)
V1: Removing PWL point (0.000256917,-0.000549)
V1: Removing PWL point (0.000257054,-0.0122)
V1: Removing PWL point (0.000257185,-0.0122)
V1: Removing PWL point (0.000257247,-0.0239)
V1: Removing PWL point (0.000257322,-0.0122)
V1: Removing PWL point (0.000257398,-0.0122)
V1: Removing PWL point (0.000257487,-0.0239)
V1: Removing PWL point (0.000257645,-0.0122)
V1: Removing PWL point (0.000257741,-0.0122)
V1: Removing PWL point (0.000257865,-0.0122)
V1: Removing PWL point (0.000258194,-0.0122)
V1: Removing PWL point (0.000258339,-0.0122)
V1: Removing PWL point (0.000258373,-0.0122)
V1: Removing PWL point (0.000258455,-0.000549)
V1: Removing PWL point (0.000258648,-0.0122)
V1: Removing PWL point (0.000258868,-0.0122)
V1: Removing PWL point (0.000258957,-0.0122)
V1: Removing PWL point (0.000259238,-0.0122)
V1: Removing PWL point (0.000259369,-0.0122)
V1: Removing PWL point (0.000259616,-0.000549)
[...]
V2: Removing PWL point (0.000160216,0.0193)
V2: Removing PWL point (0.000160505,0.0161)
V2: Removing PWL point (0.000160766,0.0161)
V2: Removing PWL point (0.000161528,0.0193)
V2: Removing PWL point (0.000161906,0.0129)
V2: Removing PWL point (0.000162036,0.0129)
V2: Removing PWL point (0.00016275,0)
V2: Removing PWL point (0.000163513,-0.0129)
V2: Removing PWL point (0.000165326,-0.045)
V2: Removing PWL point (0.000165649,-0.0482)
V2: Removing PWL point (0.000165958,-0.0418)
V2: Removing PWL point (0.000167002,-0.0289)
V2: Removing PWL point (0.000167181,-0.0257)
V2: Removing PWL point (0.00016817,0)
V2: Removing PWL point (0.0001692,0.00965)
V2: Removing PWL point (0.000169605,0.00965)
V2: Removing PWL point (0.000170285,0.00965)
V2: Removing PWL point (0.000171199,0.00965)
V2: Removing PWL point (0.000172133,0)
V2: Removing PWL point (0.000172847,-0.0193)
V2: Removing PWL point (0.000173362,-0.0257)
V2: Removing PWL point (0.000174612,-0.0579)
V2: Removing PWL point (0.000176398,-0.0386)
V2: Removing PWL point (0.000177112,-0.0193)
V2: Removing PWL point (0.000179001,0.00643)
V2: Removing PWL point (0.000179674,0.0161)
V2: Removing PWL point (0.000180402,0.0161)
V2: Removing PWL point (0.000180746,0.00965)
V2: Removing PWL point (0.000181385,0.00322)
V2: Removing PWL point (0.000181591,0.00322)
V2: Removing PWL point (0.000182429,-0.0161)
V2: Removing PWL point (0.000182532,-0.0161)
V2: Removing PWL point (0.000183301,-0.0322)
V2: Removing PWL point (0.000183775,-0.0418)
V2: Removing PWL point (0.000184475,-0.0515)
V2: Removing PWL point (0.000184956,-0.0482)
V2: Removing PWL point (0.000189009,0.00965)
V2: Removing PWL point (0.000189057,0.00965)
V2: Removing PWL point (0.000189208,0.0161)
V2: Removing PWL point (0.000190485,0.0161)
V2: Removing PWL point (0.00019065,0.0161)
V2: Removing PWL point (0.000191948,0)
V2: Removing PWL point (0.000192546,-0.0129)
V2: Removing PWL point (0.000193349,-0.0354)
V2: Removing PWL point (0.000194153,-0.0482)
V2: Removing PWL point (0.000194751,-0.045)
V2: Removing PWL point (0.000194874,-0.045)
V2: Removing PWL point (0.000195314,-0.0354)
V2: Removing PWL point (0.000196344,-0.0193)
V2: Removing PWL point (0.000196578,-0.0129)
V2: Removing PWL point (0.000197567,0)
V2: Removing PWL point (0.000197738,0.00643)
V2: Removing PWL point (0.000199098,0.0193)
V2: Removing PWL point (0.000199215,0.0129)
V2: Removing PWL point (0.000199291,0.0193)
V2: Removing PWL point (0.000200184,0.0161)
V2: Removing PWL point (0.000200534,0.00643)
V2: Removing PWL point (0.000201729,-0.00643)
V2: Removing PWL point (0.000201832,-0.00643)
V2: Removing PWL point (0.000202794,-0.0322)
V2: Removing PWL point (0.000205259,-0.0289)
V2: Removing PWL point (0.000207203,0)
V2: Removing PWL point (0.000207402,0)
V2: Removing PWL point (0.000207684,0.00643)
V2: Removing PWL point (0.000208556,0.00965)
V2: Removing PWL point (0.000208948,0.0161)
V2: Removing PWL point (0.00020914,0.0161)
V2: Removing PWL point (0.000209284,0.0129)
V2: Removing PWL point (0.000209367,0.0129)
V2: Removing PWL point (0.000209408,0.0129)
V2: Removing PWL point (0.000209538,0.0129)
V2: Removing PWL point (0.000212416,-0.0354)
V2: Removing PWL point (0.000213811,-0.0482)
V2: Removing PWL point (0.000216359,-0.00322)
V2: Removing PWL point (0.000216414,-0.00643)
V2: Removing PWL point (0.000216757,-0.00643)
V2: Removing PWL point (0.000216991,-0.00643)
V2: Removing PWL point (0.00021721,0.00643)
V2: Removing PWL point (0.000217588,0.00965)
V2: Removing PWL point (0.000217636,0.00643)
V2: Removing PWL point (0.000218179,0.00965)
V2: Removing PWL point (0.000218618,0.0161)
V2: Removing PWL point (0.000219463,0.0161)
V2: Removing PWL point (0.000220803,0.00322)
V2: Removing PWL point (0.000221112,-0.00322)
V2: Removing PWL point (0.000222231,-0.0322)
V2: Removing PWL point (0.000222403,-0.0386)
V2: Removing PWL point (0.000222863,-0.0482)
V2: Removing PWL point (0.000223042,-0.0482)
V2: Removing PWL point (0.000223667,-0.0482)
V2: Removing PWL point (0.000224319,-0.0386)
V2: Removing PWL point (0.000224985,-0.0225)
V2: Removing PWL point (0.000226112,-0.00643)
V2: Removing PWL point (0.00022719,0.00965)
V2: Removing PWL point (0.000227664,0.0161)
V2: Removing PWL point (0.000228001,0.0161)
V2: Removing PWL point (0.000229594,0.0129)
V2: Removing PWL point (0.000230137,0.00643)
V2: Removing PWL point (0.000230178,0.00322)
V2: Removing PWL point (0.000230439,0)
V2: Removing PWL point (0.000230782,-0.00965)
V2: Removing PWL point (0.000231511,-0.0225)
V2: Removing PWL point (0.000231586,-0.0257)
V2: Removing PWL point (0.000231785,-0.0289)
V2: Removing PWL point (0.000232239,-0.0418)
V2: Removing PWL point (0.000232623,-0.0547)
V2: Removing PWL point (0.000233324,-0.045)
V2: Removing PWL point (0.00023355,-0.0482)
V2: Removing PWL point (0.000235604,-0.0161)
V2: Removing PWL point (0.000236257,-0.00643)
V2: Removing PWL point (0.000236573,0)
V2: Removing PWL point (0.000236916,0.00322)
V2: Removing PWL point (0.000238667,0.0161)
V2: Removing PWL point (0.000239347,0.00322)
V2: Removing PWL point (0.000240426,-0.0129)
V2: Removing PWL point (0.000240714,-0.0193)
V2: Removing PWL point (0.000242473,-0.0515)
V2: Removing PWL point (0.000243812,-0.0386)
V2: Removing PWL point (0.000245467,-0.00965)
V2: Removing PWL point (0.000245625,-0.00643)
V2: Removing PWL point (0.000247363,0.00965)
V2: Removing PWL point (0.000247706,0.0129)
V2: Removing PWL point (0.000247871,0.00965)
V2: Removing PWL point (0.000250646,-0.0289)
V2: Removing PWL point (0.00025134,-0.045)
V2: Removing PWL point (0.00025204,-0.0579)
V2: Removing PWL point (0.000252123,-0.0547)
V2: Removing PWL point (0.000252425,-0.0547)
V2: Removing PWL point (0.0002525,-0.0547)
V2: Removing PWL point (0.000252803,-0.0515)
V2: Removing PWL point (0.00025349,-0.0386)
V2: Removing PWL point (0.000253558,-0.0322)
V2: Removing PWL point (0.00025498,-0.00643)
V2: Removing PWL point (0.00025544,0)
V2: Removing PWL point (0.000255605,0.00322)
V2: Removing PWL point (0.000257714,0.0161)
V2: Removing PWL point (0.000260324,-0.0193)
V2: Removing PWL point (0.000261553,-0.045)
V2: Removing PWL point (0.000262453,-0.0418)
V2: Removing PWL point (0.000262755,-0.0386)
V2: Removing PWL point (0.00026327,-0.0289)
V2: Removing PWL point (0.00026395,-0.0193)
V2: Removing PWL point (0.000264664,-0.00643)
V2: Removing PWL point (0.00026496,0.00322)
V2: Removing PWL point (0.000265626,0.00965)
V2: Removing PWL point (0.00026803,0.0129)
V2: Removing PWL point (0.000269266,-0.0129)
V2: Removing PWL point (0.00026952,-0.0193)
V2: Removing PWL point (0.000270784,-0.0482)
V2: Removing PWL point (0.000271272,-0.0547)
V2: Removing PWL point (0.000271808,-0.045)
V2: Removing PWL point (0.000272769,-0.0354)
V2: Removing PWL point (0.000273964,-0.0193)
V2: Removing PWL point (0.000274115,-0.0193)
V2: Removing PWL point (0.000274212,-0.0161)
V2: Removing PWL point (0.000274493,-0.0129)
V2: Removing PWL point (0.000274754,-0.00965)
V2: Removing PWL point (0.000275379,0)
V2: Removing PWL point (0.000275805,0.00643)
V2: Removing PWL point (0.000277076,0.00965)
V2: Removing PWL point (0.000278971,-0.0161)
V2: Removing PWL point (0.000280139,-0.0418)
V2: Removing PWL point (0.000280489,-0.045)
V2: Removing PWL point (0.000280936,-0.0547)
V2: Removing PWL point (0.000283807,-0.0161)
V2: Removing PWL point (0.000284329,-0.00643)
V2: Removing PWL point (0.000284514,0)
V2: Removing PWL point (0.000284803,-0.00322)
V2: Removing PWL point (0.000286767,0.00965)
V2: Removing PWL point (0.0002872,0.00643)
V2: Removing PWL point (0.000287337,0.00643)
V2: Removing PWL point (0.000287365,0.00965)
V2: Removing PWL point (0.00028753,0.00322)
V2: Removing PWL point (0.000287921,0.00322)
V2: Removing PWL point (0.000289247,-0.0257)
V2: Removing PWL point (0.000289576,-0.0354)
V2: Removing PWL point (0.000290112,-0.0418)
V2: Removing PWL point (0.000290572,-0.0482)
V2: Removing PWL point (0.000291259,-0.045)
V2: Removing PWL point (0.000291898,-0.0386)
V2: Removing PWL point (0.000292825,-0.0225)
V2: Removing PWL point (0.00029321,-0.00965)
V2: Removing PWL point (0.000293272,-0.0161)
V2: Removing PWL point (0.000293333,-0.00965)
V2: Removing PWL point (0.000293567,-0.00965)
V2: Removing PWL point (0.000294522,0.00965)
V2: Removing PWL point (0.000294645,0.0129)
V2: Removing PWL point (0.000295655,0.0193)
V2: Removing PWL point (0.000296218,0.0193)
V2: Removing PWL point (0.000296651,0.0161)
V2: Removing PWL point (0.000297042,0.0129)
V2: Removing PWL point (0.000297365,0.00643)
V2: Removing PWL point (0.000299309,-0.0289)
V2: Removing PWL point (0.000299687,-0.0418)
V2: Removing PWL point (0.000299852,-0.0386)
V2: Removing PWL point (0.000301926,-0.0225)
V2: Removing PWL point (0.000301967,-0.0225)
V2: Removing PWL point (0.000302441,-0.00965)
V2: Removing PWL point (0.000303128,-0.00643)
V2: Removing PWL point (0.000303787,0.00322)
V2: Removing PWL point (0.000304378,0.0129)
V2: Removing PWL point (0.000304927,0.0193)
V2: Removing PWL point (0.000305216,0.0193)
V2: Removing PWL point (0.000305326,0.0161)
V2: Removing PWL point (0.000305882,0.0193)
V2: Removing PWL point (0.000306699,0.0193)
V2: Removing PWL point (0.000306796,0.0161)
V2: Removing PWL point (0.000307132,0.0129)
V2: Removing PWL point (0.000309955,-0.0515)
V2: Removing PWL point (0.000310017,-0.0482)
V2: Removing PWL point (0.000311603,-0.0289)
V2: Removing PWL point (0.000311837,-0.0257)
V2: Removing PWL point (0.000314358,0.00965)
V2: Removing PWL point (0.000315216,0.00965)
V2: Removing PWL point (0.000315436,0.0129)
V2: Removing PWL point (0.000315464,0.00643)
V2: Removing PWL point (0.000316638,0)
V2: Removing PWL point (0.000316878,0)
V2: Removing PWL point (0.000319289,-0.0515)
V2: Removing PWL point (0.000321309,-0.0418)
V2: Removing PWL point (0.000321535,-0.0418)
V2: Removing PWL point (0.000322607,-0.00322)
V2: Removing PWL point (0.000323019,0.00643)
V2: Removing PWL point (0.000323053,0.00965)
V2: Removing PWL point (0.000323081,0.0129)
V2: Removing PWL point (0.000323692,0.0129)
V2: Removing PWL point (0.000324777,-0.00965)
V2: Removing PWL point (0.000325066,0.0161)
V2: Removing PWL point (0.000325952,0.0515)
V2: Removing PWL point (0.00032622,0.0129)
V2: Removing PWL point (0.000326886,-0.0836)
V2: Removing PWL point (0.00032703,-0.0868)
V2: Removing PWL point (0.000327112,-0.0868)
V2: Removing PWL point (0.00032747,-0.0515)
V2: Removing PWL point (0.000328383,0.0579)
V2: Removing PWL point (0.000329001,-0.0901)
V2: Removing PWL point (0.000329097,-0.122)
V2: Removing PWL point (0.000329977,-0.106)
V2: Removing PWL point (0.000330808,0.116)
V2: Removing PWL point (0.000331755,-0.159)
V2: Removing PWL point (0.000331955,-0.203)
V2: Removing PWL point (0.000332003,-0.206)
V2: Removing PWL point (0.000332978,0.119)
V2: Removing PWL point (0.000333205,0.187)
V2: Removing PWL point (0.000333315,0.199)
V2: Removing PWL point (0.000333699,0.125)
V2: Removing PWL point (0.000334565,-0.225)
V2: Removing PWL point (0.000334894,-0.164)
V2: Removing PWL point (0.000335059,-0.0965)
V2: Removing PWL point (0.000336055,0.196)
V2: Removing PWL point (0.000337175,-0.275)
V2: Removing PWL point (0.00033736,-0.254)
V2: Removing PWL point (0.000338274,0.14)
V2: Removing PWL point (0.000339112,-0.109)
V2: Removing PWL point (0.000339524,-0.264)
V2: Removing PWL point (0.000339778,-0.27)
V2: Removing PWL point (0.000339901,-0.244)
V2: Removing PWL point (0.000339922,-0.238)
V2: Removing PWL point (0.000340039,-0.199)
V2: Removing PWL point (0.000343068,0.0257)
V2: Removing PWL point (0.000343672,0.108)
V2: Removing PWL point (0.000346296,0.0482)
V2: Removing PWL point (0.000347223,-0.0289)
V2: Removing PWL point (0.000347306,-0.0418)
V2: Removing PWL point (0.00034734,-0.0515)
V2: Removing PWL point (0.000347374,-0.0547)
V2: Removing PWL point (0.000348659,-0.0579)
V2: Removing PWL point (0.000349112,0.0129)
V2: Removing PWL point (0.000350074,-0.0579)
V2: Removing PWL point (0.000350644,-0.125)
V2: Removing PWL point (0.000351399,-0.00322)
V2: Removing PWL point (0.000351873,0.0708)
V2: Removing PWL point (0.000353213,-0.0708)
V2: Removing PWL point (0.000354627,0.0675)
V2: Removing PWL point (0.000355019,0.0193)
V2: Removing PWL point (0.000355053,0.0129)
V2: Removing PWL point (0.000356063,-0.0515)
V2: Removing PWL point (0.000356228,-0.0386)
V2: Removing PWL point (0.000356448,-0.0161)
V2: Removing PWL point (0.000357368,-0.0225)
V2: Removing PWL point (0.000357526,-0.0354)
V2: Removing PWL point (0.000357931,-0.0643)
V2: Removing PWL point (0.000358364,-0.0708)
V2: Removing PWL point (0.000360596,-0.00965)
V2: Removing PWL point (0.000360864,-0.00322)
V2: Removing PWL point (0.000361056,-0.00643)
V2: Removing PWL point (0.000362279,-0.00643)
V2: Removing PWL point (0.000362526,0.0161)
V2: Removing PWL point (0.000362684,0.0289)
V2: Removing PWL point (0.000363268,0.045)
V2: Removing PWL point (0.000364367,-0.0225)
V2: Removing PWL point (0.000364703,-0.00643)
V2: Removing PWL point (0.00036526,0.0354)
V2: Removing PWL point (0.000365411,0.0386)
V2: Removing PWL point (0.000365919,0)
V2: Removing PWL point (0.000366888,-0.0675)
V2: Removing PWL point (0.000367568,-0.0225)
V2: Removing PWL point (0.000368474,-0.0611)
V2: Removing PWL point (0.000368591,-0.0708)
V2: Removing PWL point (0.000368976,-0.0804)
V2: Removing PWL point (0.000370171,0.0161)
V2: Removing PWL point (0.000370576,0.00965)
V2: Removing PWL point (0.000370947,-0.0257)
V2: Removing PWL point (0.000371022,-0.0322)
V2: Removing PWL point (0.00037195,0)
V2: Removing PWL point (0.000372094,0.0193)
V2: Removing PWL point (0.000372286,0.0354)
V2: Removing PWL point (0.000373371,-0.00643)
V2: Removing PWL point (0.000374099,-0.0129)
V2: Removing PWL point (0.000374127,-0.00643)
V2: Removing PWL point (0.000374505,0.0161)
V2: Removing PWL point (0.000374738,0.0193)
V2: Removing PWL point (0.00037491,0.0193)
V2: Removing PWL point (0.000375782,-0.0257)
V2: Removing PWL point (0.000377479,-0.045)
V2: Removing PWL point (0.000377506,-0.0482)
V2: Removing PWL point (0.000378797,-0.0354)
V2: Removing PWL point (0.000380254,-0.0225)
V2: Removing PWL point (0.000380295,-0.0257)
V2: Removing PWL point (0.000380542,-0.00965)
V2: Removing PWL point (0.000380707,0.00322)
V2: Removing PWL point (0.000380789,0.00643)
V2: Removing PWL point (0.000380927,0.0129)
V2: Removing PWL point (0.000383228,0.0289)
V2: Removing PWL point (0.000383791,0.0354)
V2: Removing PWL point (0.000384361,-0.0161)
V2: Removing PWL point (0.000384423,-0.0193)
V2: Removing PWL point (0.000384533,-0.0257)
V2: Removing PWL point (0.000385034,-0.0515)
V2: Removing PWL point (0.000385254,-0.045)
V2: Removing PWL point (0.000385597,-0.0161)
V2: Removing PWL point (0.000385865,-0.00643)
V2: Removing PWL point (0.000386181,-0.00322)
V2: Removing PWL point (0.000388132,-0.0386)
V2: Removing PWL point (0.00038829,-0.0289)
V2: Removing PWL point (0.000389423,-0.0386)
V2: Removing PWL point (0.000390178,-0.0354)
V2: Removing PWL point (0.000390494,-0.0129)
V2: Removing PWL point (0.000391195,0.0161)
V2: Removing PWL point (0.000391504,0.0129)
V2: Removing PWL point (0.000391717,0.00322)
V2: Removing PWL point (0.00039283,0.0129)
V2: Removing PWL point (0.000392967,0.00643)
V2: Removing PWL point (0.00039408,0)
V2: Removing PWL point (0.000395632,-0.0515)
V2: Removing PWL point (0.000395769,-0.0547)
V2: Removing PWL point (0.000396092,-0.0611)
V2: Removing PWL point (0.000396491,-0.0579)
V2: Removing PWL point (0.000397047,-0.0386)
V2: Removing PWL point (0.000397157,-0.0354)
V2: Removing PWL point (0.0003975,-0.0418)
V2: Removing PWL point (0.000398132,-0.0579)
V2: Removing PWL point (0.000398201,-0.0611)
V2: Removing PWL point (0.000398221,-0.0643)
V2: Removing PWL point (0.000398668,-0.045)
V2: Removing PWL point (0.000400021,0)
V2: Removing PWL point (0.000401038,-0.0129)
V2: Removing PWL point (0.000401429,0.00965)
V2: Removing PWL point (0.00040147,0.0129)
V2: Removing PWL point (0.000403057,-0.00322)
V2: Removing PWL point (0.000403249,-0.00965)
V2: Removing PWL point (0.000403359,-0.00322)
V2: Removing PWL point (0.000404101,0)
V2: Removing PWL point (0.000404767,-0.0129)
V2: Removing PWL point (0.000404904,-0.0161)
V2: Removing PWL point (0.000405488,-0.0418)
V2: Removing PWL point (0.000405784,-0.0515)
V2: Removing PWL point (0.00040737,-0.0515)
V2: Removing PWL point (0.000408181,-0.0354)
V2: Removing PWL point (0.00040974,-0.0161)
V2: Removing PWL point (0.000411237,0.0161)
V2: Removing PWL point (0.000411292,0.0161)
V2: Removing PWL point (0.000412315,0.00322)
V2: Removing PWL point (0.000412439,0.00322)
V2: Removing PWL point (0.000412714,0.00965)
V2: Removing PWL point (0.000413222,0.00643)
V2: Removing PWL point (0.000413792,-0.00965)
V2: Removing PWL point (0.00041382,-0.0129)
V2: Removing PWL point (0.000415427,-0.0418)
V2: Removing PWL point (0.000415688,-0.0418)
V2: Removing PWL point (0.000416938,-0.0611)
V2: Removing PWL point (0.000416993,-0.0611)
V2: Removing PWL point (0.000417858,-0.0289)
V2: Removing PWL point (0.000418264,-0.0322)
V2: Removing PWL point (0.000419246,-0.0225)
V2: Removing PWL point (0.0004202,0.00643)
V2: Removing PWL point (0.000420537,0.00965)
V2: Removing PWL point (0.000420867,0.00643)
Direct Newton iteration failed to find .op point.  (Use ".option noopiter" to skip.)
Starting Gmin stepping
Gmin = 10
Gmin = 1.07374
Gmin = 0.115292
Gmin = 0.0123794
Gmin = 0.00132923
Gmin = 0.000142725
vernier = 0.5
vernier = 0.666667
vernier = 0.333333
Gmin = 7.31096e-005
vernier = 0.444444
vernier = 0.222222
Gmin = 4.27565e-005
vernier = 0.296296
vernier = 0.148148
vernier = 0.197531
Gmin = 3.06677e-005
vernier = 0.0987653
vernier = 0.131687
Gmin = 2.42464e-005
vernier = 0.175583
vernier = 0.0877914
Gmin = 1.95282e-005
vernier = 0.117055
vernier = 0.0585276
vernier = 0.0780367
Gmin = 1.69346e-005
vernier = 0.104049
vernier = 0.0520245
Gmin = 1.47905e-005
vernier = 0.0693659
vernier = 0.0924879
vernier = 0.046244
Gmin = 1.30004e-005
vernier = 0.0616586
Gmin = 1.13705e-005
vernier = 0.0822114
vernier = 0.0411057
vernier = 0.0548076
Gmin = 1.03542e-005
vernier = 0.0730768
vernier = 0.0365384
Gmin = 9.45535e-006
vernier = 0.0487178
vernier = 0.0649571
vernier = 0.0324786
Gmin = 8.64313e-006
vernier = 0.0433047
Gmin = 7.84448e-006
vernier = 0.0577396
vernier = 0.0288698
vernier = 0.0384931
Gmin = 7.35309e-006
vernier = 0.0513241
vernier = 0.025662
Gmin = 6.91998e-006
vernier = 0.0342161
vernier = 0.0456214
vernier = 0.0228107
Gmin = 6.50086e-006
vernier = 0.0304143
vernier = 0.0405523
Gmin = 6.04565e-006
vernier = 0.0202762
vernier = 0.0270349
Gmin = 5.79619e-006
vernier = 0.0360465
vernier = 0.0180232
vernier = 0.00901162
vernier = 0.00450581
vernier = 0.00225291
Gmin = 5.70898e-006
vernier = 0.00300387
vernier = 0.00400516
Gmin = 5.66557e-006
vernier = 0.00534022
Gmin = 5.59795e-006
vernier = 0.00712029
vernier = 0.00949371
Gmin = 5.48626e-006
vernier = 0.0126583
vernier = 0.0168777
Gmin = 5.31284e-006
vernier = 0.0225036
Gmin = 5.05119e-006
vernier = 0.0300048
vernier = 0.0400064
Gmin = 4.64122e-006
vernier = 0.0533418
vernier = 0.0711224
Gmin = 4.05658e-006
vernier = 0.0948299
Gmin = 3.28464e-006
vernier = 0.12644
vernier = 0.168586
Gmin = 2.31036e-006
vernier = 0.224782
vernier = 0.299709
Gmin = 1.32617e-006
vernier = 0.399612
Gmin = 5.60991e-007
vernier = 0.532816
vernier = 0.710421
Gmin = 1.37755e-007
vernier = 0.947227
vernier = 1
Gmin = 1.77614e-008
Gmin = 1.90712e-009
Gmin = 2.04775e-010
Gmin = 2.19876e-011
Gmin = 2.3609e-012
Gmin = 2.535e-013
Gmin = 0
Gmin stepping succeeded in finding the operating point.

Heightened Def Con from 0.000125565 to 0.000125565

Date: Fri Aug 14 14:19:34 2020
Total elapsed time: 7.008 seconds.

tnom = 27
temp = 27
method = modified trap
totiter = 951275
traniter = 948147
tranpoints = 473621
accept = 466957
rejected = 6665
matrix size = 42
fillins = 13
solver = Normal
Matrix Compiler1: 2.31 KB object code size  0.5/0.2/[0.1]
Matrix Compiler2: 3.44 KB object code size  0.2/0.4/[0.2]

