Circuit: * C:\Users\Vien\Documents\LTspice_Projects\TankMET_Transducer_Sims\SMATR400H99XDA_Ultrasonic_Transducer_Complete_Simulation_with_ADC_Driver.asc

WARNING: Less than two connections to node VCC.  This node is used by V3.
Direct Newton iteration for .op point succeeded.
Ignoring empty pin current: Ix(u1:5)
Ignoring empty pin current: Ix(u1:5)

Date: Fri Aug 26 01:20:50 2022
Total elapsed time: 22.460 seconds.

tnom = 27
temp = 27
method = modified trap
totiter = 4314821
traniter = 4314812
tranpoints = 1389400
accept = 946359
rejected = 443041
matrix size = 45
fillins = 2
solver = Normal
Matrix Compiler1: 1.88 KB object code size  0.3/0.2/[0.2]
Matrix Compiler2: 2.91 KB object code size  0.2/0.3/[0.2]

