Circuit: * C:\Users\Vien\Documents\LTspice_Projects\Digital_Buck_Converter\Digital_Buck_Converter_Type1_Transient_Model.asc

Direct Newton iteration failed to find .op point.  (Use ".option noopiter" to skip.)
Starting Gmin stepping
Gmin = 10
Gmin = 1.07374
Gmin = 0.115292
Gmin = 0.0123794
Gmin = 0.00132923
Gmin = 0.000142725
Gmin = 1.5325e-005
Gmin = 1.6455e-006
Gmin = 1.76685e-007
Gmin = 1.89714e-008
Gmin = 2.03704e-009
Gmin = 2.18725e-010
Gmin = 2.34854e-011
Gmin = 2.52173e-012
Gmin = 2.70769e-013
Gmin = 0
Gmin stepping succeeded in finding the operating point.

Heightened Def Con from 0.587402 to 0.587402

Date: Tue Oct 11 21:36:14 2022
Total elapsed time: 7.916 seconds.

tnom = 27
temp = 27
method = modified trap
totiter = 783174
traniter = 782787
tranpoints = 256745
accept = 195594
rejected = 61152
matrix size = 28
fillins = 37
solver = Normal
Thread vector: 4.1/7.5[1] 1.4/1.2[2] 1.5/1.0[2] 0.1/5.9[1]  2592/500
Matrix Compiler1: 3.47 KB object code size  0.6/0.3/[0.2]
Matrix Compiler2: 3.10 KB object code size  0.5/0.4/[0.2]

