Circuit: * C:\Users\Vien\Documents\LTspice_Projects\Digital_Buck_Converter\Digital_Buck_Converter_Small_Signal_Model.asc

WARNING: Node N010 is floating.
WARNING: Node NC_01 is floating.

WARNING: Less than two connections to node NC_01.  This node is used by C4.

Date: Mon Oct 03 23:59:26 2022
Total elapsed time: 0.100 seconds.

tnom = 27
temp = 27
method = trap
totiter = 0
traniter = 0
tranpoints = 0
accept = 0
rejected = 0
matrix size = 15
fillins = 14
solver = Normal

