Circuit: * C:\Users\Vien\Documents\LTspice_Projects\Ethernet_LiFi_Simulations\Limiting_Amplifier_Input_Stage.asc

WARNING: Node N005 is floating.

WARNING: Less than two connections to node N005.  This node is used by C2.
WARNING: Less than two connections to node LEVEL_DET.  This node is used by E3.
Direct Newton iteration failed to find .op point.  (Use ".option noopiter" to skip.)
Starting Gmin stepping
Gmin = 10
Gmin = 1.07374
Gmin = 0.115292
Gmin = 0.0123794
Gmin = 0.00132923
Gmin = 0.000142725
Gmin = 1.5325e-005
Gmin = 1.6455e-006
Gmin = 1.76685e-007
Gmin = 1.89714e-008
Gmin = 2.03704e-009
Gmin = 2.18725e-010
Gmin = 2.34854e-011
Gmin = 2.52173e-012
Gmin = 2.70769e-013
Gmin = 0
Gmin stepping succeeded in finding the operating point.


Date: Sun Dec 18 22:54:05 2022
Total elapsed time: 0.798 seconds.

tnom = 27
temp = 27
method = modified trap
totiter = 57444
traniter = 56957
tranpoints = 15839
accept = 11852
rejected = 3987
matrix size = 53
fillins = 15
solver = Normal
Thread vector: 4.2/3.0[2] 2.6/1.7[2] 1.3/1.1[2] 0.1/0.4[1]  2592/500
Matrix Compiler1: 4.61 KB object code size  0.7/0.3/[0.3]
Matrix Compiler2: 4.87 KB object code size  0.4/0.5/[0.3]

