Circuit: * C:\Users\Vien\Documents\LTspice_Projects\1p75GHz_Pulse_Shaping_Filter\1p75GHz_Pulse_Shaping_Filter_Monte_Carlo\Draft1.asc

Direct Newton iteration for .op point succeeded.

Date: Thu Mar 25 10:58:54 2021
Total elapsed time: 0.139 seconds.

tnom = 27
temp = 27
method = modified trap
totiter = 20976
traniter = 20962
tranpoints = 6958
accept = 5273
rejected = 1685
matrix size = 10
fillins = 0
solver = Normal
Matrix Compiler1: 480 bytes object code size  0.1/0.1/[0.1]
Matrix Compiler2: off  [0.1]/0.1/0.1

