Circuit: * C:\Users\Vien\Documents\LTspice_Projects\Current_Injector\High_Speed_Current_Injector.asc

WARNING: Node NC_01 is floating.
WARNING: Node NC_02 is floating.

WARNING: Less than two connections to node NC_01.  This node is used by C2.
WARNING: Less than two connections to node NC_02.  This node is used by C3.
Direct Newton iteration failed to find .op point.  (Use ".option noopiter" to skip.)
Starting Gmin stepping
Gmin = 10
Gmin = 1.07374
Gmin = 0.115292
Gmin = 0.0123794
Gmin = 0.00132923
Gmin = 0.000142725
Gmin = 1.5325e-005
Gmin = 1.6455e-006
vernier = 0.5
vernier = 0.25
vernier = 0.125
vernier = 0.0625
vernier = 0.03125
vernier = 0.015625
vernier = 0.0078125
vernier = 0.00390625
vernier = 0.00195313
Gmin = 1.6455e-006
vernier = 0.000976563
vernier = 0.00130208
Gmin = 1.64136e-006
vernier = 0.00173611
vernier = 0.00231481
Gmin = 1.63413e-006
vernier = 0.00308642
Gmin = 1.62283e-006
vernier = 0.00411522
vernier = 0.00548696
Gmin = 1.60403e-006
vernier = 0.00731595
vernier = 0.00975459
Gmin = 1.57451e-006
vernier = 0.0130061
Gmin = 1.52916e-006
vernier = 0.0173415
vernier = 0.023122
Gmin = 1.45602e-006
vernier = 0.0308293
vernier = 0.0411057
Gmin = 1.34671e-006
vernier = 0.0548076
Gmin = 1.19139e-006
vernier = 0.0730768
vernier = 0.0974357
Gmin = 9.70663e-007
vernier = 0.129914
vernier = 0.173219
Gmin = 7.01545e-007
vernier = 0.230959
Gmin = 4.22803e-007
vernier = 0.307945
vernier = 0.410593
Gmin = 1.83286e-007
vernier = 0.547457
vernier = 0.729942
Gmin = 4.99359e-008
vernier = 0.973256
Gmin = 6.91424e-009
vernier = 1
Gmin = 7.4241e-010
Gmin = 7.97157e-011
Gmin = 8.55941e-012
Gmin = 9.1906e-013
Gmin = 0
Gmin = 0
Gmin stepping succeeded in finding the operating point.


Date: Sun Aug 22 23:18:28 2021
Total elapsed time: 8.171 seconds.

tnom = 27
temp = 27
method = modified trap
totiter = 340416
traniter = 338637
tranpoints = 128700
accept = 95343
rejected = 33357
matrix size = 89
fillins = 122
solver = Normal
Thread vector: 13.2/7.2[7] 7.0/4.1[7] 2.9/1.7[7] 0.3/0.6[1]  2592/500
Matrix Compiler1: 11.54 KB object code size  2.6/1.0/[0.7]
Matrix Compiler2: 11.45 KB object code size  1.0/1.3/[0.6]

