Circuit: * C:\Users\Vien\Documents\LTspice_Projects\Current_Injector\Ultra_Low_Noise_Preamp.asc

Direct Newton iteration failed to find .op point.  (Use ".option noopiter" to skip.)
Starting Gmin stepping
Gmin = 10
vernier = 0.5
Gmin = 1.86414
vernier = 0.25
vernier = 0.125
vernier = 0.0625
vernier = 0.03125
Gmin = 1.98679
vernier = 0.015625
vernier = 0.0078125
Gmin = 1.95985
vernier = 0.0104167
vernier = 0.0138889
Gmin = 1.90294
vernier = 0.0185185
vernier = 0.0246913
Gmin = 1.81565
vernier = 0.0329218
Gmin = 1.68649
vernier = 0.0438957
vernier = 0.0585276
Gmin = 1.49042
vernier = 0.0780367
vernier = 0.104049
Gmin = 1.22473
vernier = 0.138732
vernier = 0.0693659
vernier = 0.034683
Gmin = 1.03232
vernier = 0.0173415
vernier = 0.00867074
vernier = 0.00433537
Gmin = 1.00809
vernier = 0.00216769
vernier = 0.00108384
Gmin = 1.004
vernier = 0.00144512
vernier = 0.000722562
Gmin = 1.00219
vernier = 0.000541921
vernier = 0.000406441
Gmin = 0
Gmin = 0
Gmin stepping failed

Starting source stepping with srcstepmethod=0
Source Step = 3.0303%
Source Step = 33.3333%
Source Step = 63.6364%
Source Step = 93.9394%
Source stepping succeeded in finding the operating point.


Date: Tue Aug 25 17:25:46 2020
Total elapsed time: 1.912 seconds.

tnom = 27
temp = 27
method = trap
totiter = 4715
traniter = 0
tranpoints = 0
accept = 0
rejected = 0
matrix size = 520
fillins = 1135
solver = Normal
Matrix Compiler1:    4645 opcodes
Matrix Compiler2: 58.80 KB object code size  5.5/6.9/[2.3]

