LTspice 24.0.9 for Windows
Circuit: * C:\Users\Vien\Documents\LTspice_Projects\Precision_Regulator\LT1009_Precision_Regulator.asc
Start Time: Fri Jan 24 02:49:08 2025
Warning: Multiple definitions of model "2scr375p" Type: BJT
Warning: Multiple definitions of model "bc857b" Type: BJT
Warning: Multiple definitions of model "bc847c" Type: BJT
Warning: Multiple definitions of model "bc847b" Type: BJT
solver = Normal
Maximum thread count: 16



Direct Newton iteration failed to find .op point.  (Use ".option noopiter" to skip.)
Starting Gmin stepping
Gmin = 10
Gmin = 1.07374
Gmin = 0.115292
Gmin = 0.0123794
Gmin = 0.00132923
Gmin = 0.000142725
Gmin = 1.5325e-05
Gmin = 1.6455e-06
Gmin = 1.76685e-07
Gmin = 1.89714e-08
Gmin = 2.03704e-09
Gmin = 2.18725e-10
Gmin = 2.34854e-11
Gmin = 2.52173e-12
Gmin = 2.70769e-13
Gmin = 0
Gmin stepping succeeded in finding the operating point.

.step temp=-55°C x=250



.step temp=25°C x=250



.step temp=125°C x=250



.step temp=-55°C x=200.2



.step temp=25°C x=200.2



.step temp=125°C x=200.2



.step temp=-55°C x=150.4



.step temp=25°C x=150.4



.step temp=125°C x=150.4



.step temp=-55°C x=100.6



.step temp=25°C x=100.6



.step temp=125°C x=100.6



.step temp=-55°C x=50.8



.step temp=25°C x=50.8



.step temp=125°C x=50.8



.step temp=-55°C x=1



.step temp=25°C x=1
tnom = 27
temp = 125
method = modified trap
.step temp=125°C x=1
Total elapsed time: 2.303 seconds.

