Circuit: * C:\Users\Vien\Documents\LTspice_Projects\GaN_MMIC_Bias_Supply\Draft1.asc

Error on line 32 : .model n nmf beta=2 vto=-1.8  cds=150f cgd=50f cgs=300f  rd=0.62 rg=0.98 rs=1.38
	* Unrecognized parameter "cds" -- ignored
	* Unrecognized parameter "rg" -- ignored
WARNING: Less than two connections to node -3V.  This node is used by V4.
Direct Newton iteration failed to find .op point.  (Use ".option noopiter" to skip.)
Starting Gmin stepping
Gmin = 10
Gmin = 1.07374
Gmin = 0.115292
Gmin = 0.0123794
Gmin = 0.00132923
Gmin = 0.000142725
Gmin = 1.5325e-005
Gmin = 1.6455e-006
Gmin = 1.76685e-007
Gmin = 1.89714e-008
Gmin = 2.03704e-009
Gmin = 2.18725e-010
Gmin = 2.34854e-011
Gmin = 2.52173e-012
Gmin = 2.70769e-013
Gmin = 0
Gmin stepping succeeded in finding the operating point.

Ignoring empty pin current: Ix(u1:2)
Ignoring empty pin current: Ix(u2:5)
Ignoring empty pin current: Ix(u1:2)
Ignoring empty pin current: Ix(u2:5)

Date: Sun Nov 19 00:01:51 2023
Total elapsed time: 0.202 seconds.

tnom = 27
temp = 27
method = modified trap
totiter = 6129
traniter = 5759
tranpoints = 2076
accept = 1810
rejected = 266
matrix size = 76
fillins = 38
solver = Normal
Thread vector: 12.7/7.7[6] 4.0/2.5[6] 2.5/1.8[4] 0.2/0.3[1]  2592/500
Matrix Compiler1: 6.62 KB object code size  1.1/0.5/[0.3]
Matrix Compiler2: 7.62 KB object code size  0.7/0.9/[0.4]

