LTspice 24.0.9 for Windows
Circuit: * C:\Users\Vien\Documents\LTspice_Projects\GaN_MMIC_Bias_Supply\Draft2.asc
Start Time: Tue Apr 16 01:25:28 2024
solver = Normal
Maximum thread count: 16
tnom = 27
temp = 27
method = modified trap
Direct Newton iteration for .op point succeeded.
Total elapsed time: 0.091 seconds.

