Circuit: * C:\Users\Vien\Documents\LTspice_Projects\Fast_TIA\DC_Offset_Cancellation_Circuit.asc

WARNING: Less than two connections to node VEE.  This node is used by VCC1.
Direct Newton iteration failed to find .op point.  (Use ".option noopiter" to skip.)
Starting Gmin stepping
Gmin = 10
Gmin = 1.07374
Gmin = 0.115292
Gmin = 0.0123794
Gmin = 0.00132923
Gmin = 0.000142725
Gmin = 1.5325e-005
Gmin = 1.6455e-006
Gmin = 1.76685e-007
Gmin = 1.89714e-008
Gmin = 2.03704e-009
Gmin = 2.18725e-010
Gmin = 2.34854e-011
Gmin = 2.52173e-012
Gmin = 2.70769e-013
Gmin = 0
Gmin stepping succeeded in finding the operating point.

Ignoring empty pin current: Ix(u1:5)
Ignoring empty pin current: Ix(u1:5)

Date: Sat Jan 16 23:18:52 2021
Total elapsed time: 0.086 seconds.

tnom = 27
temp = 27
method = modified trap
totiter = 2830
traniter = 2272
tranpoints = 1137
accept = 1115
rejected = 22
matrix size = 18
fillins = 11
solver = Normal
Matrix Compiler1: 1.54 KB object code size  0.3/0.1/[0.1]
Matrix Compiler2: 1.62 KB object code size  0.2/0.2/[0.1]

