Circuit: * C:\Users\Vien\Documents\LTspice_Projects\Fast_TIA\TIA.asc

Direct Newton iteration failed to find .op point.  (Use ".option noopiter" to skip.)
Starting Gmin stepping
Gmin = 10
Gmin = 1.07374
Gmin = 0.115292
Gmin = 0.0123794
Gmin = 0.00132923
Gmin = 0.000142725
Gmin = 1.5325e-005
Gmin = 1.6455e-006
Gmin = 1.76685e-007
Gmin = 1.89714e-008
Gmin = 2.03704e-009
Gmin = 2.18725e-010
Gmin = 2.34854e-011
Gmin = 2.52173e-012
Gmin = 2.70769e-013
Gmin = 0
Gmin stepping succeeded in finding the operating point.


Date: Wed Jun 03 15:18:55 2020
Total elapsed time: 0.166 seconds.

tnom = 27
temp = 27
method = modified trap
totiter = 5746
traniter = 5287
tranpoints = 1936
accept = 1639
rejected = 297
matrix size = 48
fillins = 47
solver = Normal
Thread vector: 8.0/4.3[4] 2.7/2.1[4] 1.1/0.9[4] 0.1/0.4[1]  2592/500
Matrix Compiler1: 4.66 KB object code size  0.7/0.3/[0.3]
Matrix Compiler2: 5.31 KB object code size  0.4/0.6/[0.3]

