Circuit: * C:\Users\Vien\Documents\LTspice_Projects\Fast_TIA\TIA_Small_Signal_Model.asc

Direct Newton iteration for .op point succeeded.

Date: Fri Mar 03 00:10:58 2023
Total elapsed time: 0.064 seconds.

tnom = 27
temp = 27
method = trap
totiter = 7
traniter = 0
tranpoints = 0
accept = 0
rejected = 0
matrix size = 29
fillins = 32
solver = Normal
Matrix Compiler1:     245 opcodes
Matrix Compiler2: 3.13 KB object code size
