Circuit: * C:\Users\Vien\Documents\LTspice_Projects\Solar_Array_Simulator\Controlled_Current_Source_DC_Test_Bench.asc

WARNING: Less than two connections to node SAS_OUT.  This node is used by R4.
.step v_isc_set=0.2
Direct Newton iteration failed to find .op point.  (Use ".option noopiter" to skip.)
Starting Gmin stepping
Gmin = 10
Gmin = 1.07374
Gmin = 0.115292
Gmin = 0.0123794
Gmin = 0.00132923
Gmin = 0.000142725
Gmin = 1.5325e-005
Gmin = 1.6455e-006
vernier = 0.5
vernier = 0.25
vernier = 0.125
vernier = 0.0625
vernier = 0.03125
vernier = 0.015625
vernier = 0.0078125
vernier = 0.00390625
vernier = 0.00195313
Gmin = 1.6455e-006
vernier = 0.000976563
vernier = 0.000488281
Gmin = 0
Gmin stepping failed

Starting source stepping with srcstepmethod=0
Source Step = 3.0303%
Source Step = 21.5909%
Source Step = 23.4848%
Source Step = 25.3788%
Source Step = 27.2727%
Source Step = 29.1667%
vernier = 0.09375
Source Step = 31.1553%
Source Step = 33.9962%
Source Step = 36.8371%
Source Step = 39.678%
Source Step = 42.5189%
Source Step = 45.3598%
vernier = 0.140625
Source Step = 49.6212%
Source Step = 53.8826%
Source Step = 58.1439%
Source Step = 62.4053%
Source Step = 66.6667%
vernier = 0.210938
Source Step = 72.8456%
Source Step = 79.2377%
Source Step = 85.6297%
Source Step = 92.0218%
Source Step = 98.4138%
vernier = 0.316406
Source stepping succeeded in finding the operating point.

.step v_isc_set=0.5
.step v_isc_set=1
.step v_isc_set=2
.step v_isc_set=3

Date: Fri Oct 07 10:57:37 2022
Total elapsed time: 0.878 seconds.

tnom = 27
temp = 27
method = trap
totiter = 7761
traniter = 0
tranpoints = 0
accept = 0
rejected = 0
matrix size = 67
fillins = 44
solver = Normal
Thread vector: 5.1/3.9[2] 0.0/0.0[0] 1.4/1.4[1] 0.2/0.4[1]  2592/500
Matrix Compiler1:     372 opcodes  1.1/0.5/[0.4]
Matrix Compiler2: 6.92 KB object code size  0.6/0.6/[0.4]

