Circuit: * C:\Users\Vien\Documents\LTspice_Projects\Solar_Array_Simulator\Controlled_Current_Source.asc

Direct Newton iteration for .op point succeeded.

Date: Mon Oct 03 23:14:08 2022
Total elapsed time: 0.183 seconds.

tnom = 27
temp = 27
method = modified trap
totiter = 4781
traniter = 4752
tranpoints = 1961
accept = 1739
rejected = 222
matrix size = 56
fillins = 18
solver = Normal
Thread vector: 5.2/4.1[2] 1.9/1.5[2] 0.9/0.8[1] 0.1/0.4[1]  2592/500
Matrix Compiler1: 5.26 KB object code size  0.9/0.4/[0.3]
Matrix Compiler2: 5.57 KB object code size  0.4/0.5/[0.3]

