Circuit: * C:\Users\Vien\Documents\LTspice_Projects\Solar_Array_Simulator\Draft1.asc

WARNING: Node N011 is floating.

Direct Newton iteration for .op point succeeded.

Date: Fri Sep 16 12:28:57 2022
Total elapsed time: 0.163 seconds.

tnom = 27
temp = 27
method = modified trap
totiter = 2103
traniter = 2100
tranpoints = 1051
accept = 1049
rejected = 2
matrix size = 15
fillins = 3
solver = Normal
Matrix Compiler1: 650 bytes object code size  0.3/0.2/[0.2]
Matrix Compiler2: 979 bytes object code size  0.2/0.3/[0.2]

