Circuit: * C:\Users\Vien\Documents\LTspice_Projects\Solar_Array_Simulator\Original_Circuit.asc

WARNING: Less than two connections to node N008.  This node is used by Q2.
Direct Newton iteration failed to find .op point.  (Use ".option noopiter" to skip.)
Starting Gmin stepping
Gmin = 10
Gmin = 1.07374
Gmin = 0.115292
Gmin = 0.0123794
Gmin = 0.00132923
Gmin = 0.000142725
Gmin = 1.5325e-005
Gmin = 1.6455e-006
Gmin = 1.76685e-007
vernier = 0.5
vernier = 0.666667
Gmin = 5.3786e-008
vernier = 0.888888
Gmin = 9.12399e-009
vernier = 1
Gmin = 1.00195e-009
Gmin = 1.07583e-010
Gmin = 1.15517e-011
Gmin = 1.24035e-012
Gmin = 1.33182e-013
Gmin = 0
Gmin stepping succeeded in finding the operating point.

.step rset_voc=10
.step rset_voc=1000
.step rset_voc=5000
.step rset_voc=10000

Date: Fri Aug 26 16:13:13 2022
Total elapsed time: 0.624 seconds.

tnom = 27
temp = 27
method = modified trap
totiter = 2792
traniter = 2082
tranpoints = 1042
accept = 1042
rejected = 0
matrix size = 52
fillins = 32
solver = Normal
Matrix Compiler1: 7.26 KB object code size  1.0/0.5/[0.4]
Matrix Compiler2: 5.50 KB object code size  0.4/0.6/[0.3]

