Circuit: * C:\Users\Vien\Documents\LTspice_Projects\Solar_Array_Simulator\SAS_Simplitied.asc

.step ictl=0
Early termination of direct N-R iteration.
Direct Newton iteration failed to find .op point.  (Use ".option noopiter" to skip.)
Starting Gmin stepping
Gmin = 10
Gmin = 1.07374
Gmin = 0.115292
Gmin = 0.0123794
Gmin = 0.00132923
Gmin = 0.000142725
Gmin = 1.5325e-005
Gmin = 1.6455e-006
Gmin = 1.76685e-007
vernier = 0.5
vernier = 0.25
vernier = 0.125
vernier = 0.0625
vernier = 0.03125
vernier = 0.015625
vernier = 0.0078125
Gmin = 1.13078e-007
vernier = 0.00390625
vernier = 0.00195313
vernier = 0.000976563
vernier = 0.000488281
Gmin = 0
Gmin stepping failed

Starting source stepping with srcstepmethod=0
Source Step = 3.0303%
vernier = 0.25
Source Step = 0.0177557%
Source Step = 0.0473485%
Source Step = 0.0769413%
Source Step = 0.106534%
Source Step = 0.136127%
vernier = 0.00146484
Source Step = 0.168679%
Source Step = 0.213068%
Source Step = 0.257457%
Source Step = 0.301847%
Source Step = 0.346236%
vernier = 0.00219727
Source Step = 0.392844%
Source Step = 0.459428%
Source Step = 0.526012%
Source Step = 0.592596%
Source Step = 0.65918%
Source Step = 0.725763%
vernier = 0.0032959
Source Step = 0.825639%
Source Step = 0.925515%
Source Step = 1.02539%
Source Step = 1.12527%
Source Step = 1.22514%
vernier = 0.00494385
Source Step = 1.36996%
Source Step = 1.51978%
Source Step = 1.66959%
Source Step = 1.8194%
Source Step = 1.96922%
vernier = 0.00741577
Source Step = 2.17896%
Source Step = 2.40368%
Source Step = 2.6284%
Source Step = 2.85312%
Source Step = 3.07784%
vernier = 0.0111237
Source Step = 3.38121%
Source Step = 3.71829%
Source Step = 4.05537%
Source Step = 4.39245%
Source Step = 4.72953%
vernier = 0.0166855
Source Step = 5.16774%
Source Step = 5.67336%
Source Step = 6.17898%
Source Step = 6.6846%
Source Step = 7.19022%
vernier = 0.0250282
Source Step = 7.82224%
Source Step = 8.58068%
Source Step = 9.33911%
Source Step = 10.0975%
Source Step = 10.856%
vernier = 0.0375423
Source Step = 11.7661%
Source Step = 12.9037%
Source Step = 14.0414%
Source Step = 15.179%
Source Step = 16.3167%
vernier = 0.0563135
Source Step = 17.625%
Source Step = 19.3314%
Source Step = 21.0379%
Source Step = 22.7444%
Source Step = 24.4508%
vernier = 0.0844703
Source Step = 26.328%
Source Step = 28.8877%
Source Step = 31.4474%
Source Step = 34.0071%
Source Step = 36.5668%
vernier = 0.126705
Source Step = 39.2545%
Source Step = 43.094%
Source Step = 45.8057%
Source Step = 46.0457%
Source Step = 46.2857%
Source Step = 46.5256%
Source Step = 46.7656%
Source Step = 47.0056%
vernier = 0.0118786
Source Step = 47.1946%
Source Step = 47.2846%
Source Step = 47.3745%
Source Step = 47.4645%
Source Step = 47.5545%
vernier = 0.00445449
Source Step = 47.658%
Source Step = 47.793%
Source Step = 47.928%
Source Step = 48.063%
Source Step = 48.1979%
vernier = 0.00668173
Source Step = 48.3464%
Source Step = 48.5489%
Source Step = 48.7514%
Source Step = 48.9539%
Source Step = 49.1563%
vernier = 0.0100226
Source Step = 49.3689%
Source Step = 49.6727%
Source Step = 49.9764%
Source Step = 50.2801%
Source Step = 50.5838%
Source Step = 50.8875%
vernier = 0.0150339
Source Step = 51.3431%
Source Step = 51.7987%
Source Step = 52.2542%
Source Step = 52.7098%
Source Step = 53.1654%
vernier = 0.0225508
Source Step = 53.826%
Source Step = 54.5093%
Source Step = 55.1927%
Source Step = 55.876%
Source Step = 56.5594%
vernier = 0.0338263
Source Step = 57.5161%
Source Step = 58.5411%
Source Step = 59.5662%
Source Step = 60.5912%
Source Step = 61.6162%
vernier = 0.0507394
Source Step = 63%
Source Step = 64.5376%
Source Step = 66.0752%
Source Step = 67.6127%
Source Step = 69.1503%
vernier = 0.0761091
Source Step = 71.1491%
Source Step = 73.4554%
Source Step = 75.7618%
Source Step = 78.0681%
Source Step = 80.3744%
vernier = 0.114164
Source Step = 83.2574%
Source Step = 86.7169%
Source Step = 90.1764%
Source Step = 93.6359%
Source Step = 94.0143%
Source Step = 94.0683%
Source Step = 94.1224%
Source Step = 94.1764%
Source Step = 94.2305%
Source Step = 94.2845%
Source Step = 94.3386%
Source Step = 94.3926%
Source Step = 94.4467%
Source Step = 94.5008%
Source Step = 94.5548%
vernier = 0.00267571
Source Step = 94.6224%
Source Step = 94.7035%
Source Step = 94.7845%
Source Step = 94.8656%
Source Step = 94.9467%
vernier = 0.00401357
Source Step = 95.044%
Source Step = 95.1656%
Source Step = 95.2872%
Source Step = 95.4089%
Source Step = 95.5305%
vernier = 0.00602035
Source Step = 95.6704%
Source Step = 95.8528%
Source Step = 96.0352%
Source Step = 96.2177%
Source Step = 96.4001%
vernier = 0.00903052
Source Step = 96.6008%
Source Step = 96.8744%
Source Step = 97.1481%
Source Step = 97.4217%
Source Step = 97.6954%
vernier = 0.0135458
Source Step = 97.9827%
Source Step = 98.3932%
Source Step = 98.8037%
Source Step = 99.2142%
Source Step = 99.6246%
Source Step = 100%
vernier = 0.0203187
Source stepping succeeded in finding the operating point.

Early termination of direct N-R iteration.
Direct Newton iteration failed to find .op point.  (Use ".option noopiter" to skip.)
Starting Gmin stepping
Gmin = 10
Gmin = 1.07374
Gmin = 0.115292
Gmin = 0.0123794
Gmin = 0.00132923
Gmin = 0.000142725
Gmin = 1.5325e-005
Gmin = 1.6455e-006
Gmin = 1.76685e-007
Gmin = 1.89714e-008
Gmin = 2.03704e-009
Gmin = 2.18725e-010
Gmin = 2.34854e-011
Gmin = 2.52173e-012
Gmin = 2.70769e-013
Gmin = 0
Gmin stepping succeeded in finding the operating point.

Direct Newton iteration failed to find .op point.  (Use ".option noopiter" to skip.)
Starting Gmin stepping
Gmin = 10
Gmin = 1.07374
Gmin = 0.115292
Gmin = 0.0123794
Gmin = 0.00132923
Gmin = 0.000142725
Gmin = 1.5325e-005
Gmin = 1.6455e-006
Gmin = 1.76685e-007
Gmin = 1.89714e-008
Gmin = 2.03704e-009
Gmin = 2.18725e-010
Gmin = 2.34854e-011
Gmin = 2.52173e-012
Gmin = 2.70769e-013
Gmin = 0
Gmin stepping succeeded in finding the operating point.

.step ictl=0.0005
.step ictl=0.001
.step ictl=0.0015

Date: Wed Nov 16 17:32:27 2022
Total elapsed time: 1.548 seconds.

tnom = 27
temp = 27
method = trap
totiter = 1301
traniter = 0
tranpoints = 0
accept = 0
rejected = 0
matrix size = 75
fillins = 99
solver = Normal
Thread vector: 5.2/4.2[2] 0.0/0.0[0] 1.4/1.1[2] 0.2/0.5[1]  2592/500
Matrix Compiler1:     813 opcodes  2.6/1.0/[0.7]
Matrix Compiler2: 9.41 KB object code size  0.7/0.8/[0.4]

