Circuit: * C:\Users\Vien\Documents\LTspice_Projects\Solar_Array_Simulator\Test_Bench.asc

.step rset_voc=1
Direct Newton iteration failed to find .op point.  (Use ".option noopiter" to skip.)
Starting Gmin stepping
Gmin = 10
Gmin = 1.07374
Gmin = 0.115292
Gmin = 0.0123794
Gmin = 0.00132923
Gmin = 0.000142725
Gmin = 1.5325e-005
Gmin = 1.6455e-006
Gmin = 1.76685e-007
vernier = 0.5
Gmin = 2.96428e-008
vernier = 0.25
vernier = 0.125
vernier = 0.0625
vernier = 0.03125
vernier = 0.015625
vernier = 0.0078125
vernier = 0.00390625
vernier = 0.00195313
vernier = 0.000976563
vernier = 0.000488281
Gmin = 2.96428e-008
Gmin = 0
Gmin stepping failed

Starting source stepping with srcstepmethod=0
Source Step = 3.0303%
Source Step = 33.3333%
Source Step = 63.6364%
Source Step = 75.7605%
Source Step = 75.7901%
Source Step = 75.8197%
Source Step = 75.8493%
Source Step = 75.8789%
Source Step = 75.9085%
vernier = 0.00146484
Source Step = 75.9484%
Source Step = 75.9928%
Source Step = 76.0372%
Source Step = 76.0816%
Source Step = 76.126%
vernier = 0.00219727
Source Step = 76.1837%
Source Step = 76.2503%
Source Step = 76.3169%
Source Step = 76.3835%
Source Step = 76.45%
vernier = 0.0032959
Source Step = 76.5333%
Source Step = 76.6332%
Source Step = 76.733%
Source Step = 76.8329%
Source Step = 76.9328%
vernier = 0.00494385
Source Step = 77.0526%
Source Step = 77.2024%
Source Step = 77.3523%
Source Step = 77.5021%
Source Step = 77.6519%
vernier = 0.00741577
Source Step = 77.8242%
Source Step = 78.0489%
Source Step = 78.2736%
Source Step = 78.4983%
Source Step = 78.7231%
vernier = 0.0111237
Source Step = 78.9702%
Source Step = 79.3073%
Source Step = 79.6444%
Source Step = 79.9815%
Source Step = 80.3186%
vernier = 0.0166855
Source Step = 80.6725%
Source Step = 81.1781%
Source Step = 81.6837%
Source Step = 82.1894%
Source Step = 82.695%
Source Step = 83.2006%
vernier = 0.0250282
Source Step = 83.959%
Source Step = 84.7175%
Source Step = 85.4759%
Source Step = 86.2343%
Source Step = 86.9928%
vernier = 0.0375423
Source Step = 88.0925%
Source Step = 89.2301%
Source Step = 90.3678%
vernier = 0.00938559
Source Step = 90.318%
Source Step = 90.3891%
Source Step = 90.4602%
Source Step = 90.5313%
Source Step = 90.6024%
Source Step = 90.6735%
Source Step = 90.7446%
Source Step = 90.8157%
Source Step = 90.8868%
Source Step = 90.9579%
vernier = 0.00351959
Source Step = 91.0397%
Source Step = 91.1464%
Source Step = 91.253%
Source Step = 91.3597%
Source Step = 91.4663%
vernier = 0.00527939
Source Step = 91.5836%
Source Step = 91.7436%
Source Step = 91.9036%
Source Step = 92.0636%
Source Step = 92.2236%
vernier = 0.00791909
Source Step = 92.3915%
Source Step = 92.6315%
Source Step = 92.8715%
Source Step = 93.1115%
Source Step = 93.3514%
Source Step = 93.5914%
vernier = 0.0118786
Source Step = 93.9514%
Source Step = 94.3113%
Source Step = 94.6713%
Source Step = 95.0312%
Source Step = 95.3912%
vernier = 0.0178179
Source Step = 95.9131%
Source Step = 96.4531%
Source Step = 96.993%
Source Step = 97.533%
Source Step = 98.0729%
vernier = 0.0267269
Source Step = 98.8288%
Source Step = 99.6387%
Source stepping succeeded in finding the operating point.

.step rset_voc=10
.step rset_voc=100
.step rset_voc=1000
.step rset_voc=5000
.step rset_voc=10000

Date: Mon Aug 22 23:49:51 2022
Total elapsed time: 0.413 seconds.

tnom = 27
temp = 27
method = trap
totiter = 4710
traniter = 0
tranpoints = 0
accept = 0
rejected = 0
matrix size = 27
fillins = 18
solver = Normal
Matrix Compiler1:     129 opcodes  0.4/0.2/[0.2]
Matrix Compiler2: off  [0.1]/0.3/0.2

