Circuit: * C:\Users\Vien\Documents\LTspice_Projects\NUFEP_Simulations\3525-5_to_LT8330_Boost_Converter.asc

Direct Newton iteration failed to find .op point.  (Use ".option noopiter" to skip.)
Starting Gmin stepping
Gmin = 10
Gmin = 1.07374
Gmin = 0.115292
Gmin = 0.0123794
Gmin = 0.00132923
Gmin = 0.000142725
Gmin = 1.5325e-005
Gmin = 1.6455e-006
Gmin = 1.76685e-007
Gmin = 1.89714e-008
Gmin = 2.03704e-009
Gmin = 2.18725e-010
Gmin = 2.34854e-011
Gmin = 2.52173e-012
Gmin = 2.70769e-013
Gmin = 0
Gmin stepping succeeded in finding the operating point.

Ignoring empty pin current: Ix(u2:2)
Ignoring empty pin current: Ix(u2:4)
Ignoring empty pin current: Ix(u3:5)
Ignoring empty pin current: Ix(u2:2)
Ignoring empty pin current: Ix(u2:4)
Ignoring empty pin current: Ix(u3:5)

Date: Thu Feb 11 18:45:08 2021
Total elapsed time: 1333.179 seconds.

tnom = 27
temp = 27
method = modified trap
totiter = 141447556
traniter = 141447156
tranpoints = 33861388
accept = 25025818
rejected = 8835570
matrix size = 79
fillins = 18
solver = Normal
Thread vector: 11.1/4.2[4] 2.4/1.9[2] 0.4/0.7[1] 0.1/0.7[1]  2592/500
Matrix Compiler1: 3.88 KB object code size  0.7/0.4/[0.3]
Matrix Compiler2: 5.12 KB object code size  0.4/0.6/[0.2]

