Circuit: * C:\Users\Vien\Documents\LTspice_Projects\NUFEP_Simulations\Draft1.asc

Direct Newton iteration for .op point succeeded.

Date: Wed Jul 14 23:49:56 2021
Total elapsed time: 0.085 seconds.

tnom = 27
temp = 27
method = modified trap
totiter = 2242
traniter = 2236
tranpoints = 1114
accept = 1107
rejected = 7
matrix size = 10
fillins = 0
solver = Normal
Matrix Compiler1:      29 opcodes  0.2/[0.1]/0.2
Matrix Compiler2: 740 bytes object code size  0.1/0.2/[0.1]

