Circuit: * C:\Users\Vien\Documents\LTspice_Projects\NUFEP_Simulations\H_Bridge_Driver_80Hz.asc

WARNING: Less than two connections to node VBRDG.  This node is used by M§Q9.
Direct Newton iteration failed to find .op point.  (Use ".option noopiter" to skip.)
Starting Gmin stepping
Gmin = 10
Gmin = 1.07374
Gmin = 0.115292
vernier = 0.5
vernier = 0.666667
Gmin = 0.04029
vernier = 0.888888
vernier = 1
Gmin = 0.006089
Gmin = 0.000653801
vernier = 0.5
Gmin = 0.000121877
vernier = 0.25
vernier = 0.125
vernier = 0.0625
Gmin = 0.000119449
vernier = 0.0833333
vernier = 0.111111
Gmin = 9.68697e-005
vernier = 0.148148
Gmin = 6.97952e-005
vernier = 0.197531
vernier = 0.263374
Gmin = 4.04994e-005
vernier = 0.351165
vernier = 0.46822
Gmin = 1.7244e-005
vernier = 0.23411
vernier = 0.117055
vernier = 0.0585276
vernier = 0.0292638
vernier = 0.0146319
vernier = 0.00731595
Gmin = 1.5437e-005
vernier = 0.00365797
vernier = 0.00182899
vernier = 0.000914493
vernier = 0.000457247
Gmin = 0
Gmin stepping failed

Starting source stepping with srcstepmethod=0
Source Step = 3.0303%
Source Step = 28.0303%
Source Step = 28.1457%
Source Step = 28.1753%
Source Step = 28.2049%
Source Step = 28.2345%
Source Step = 28.2641%
Source Step = 28.2937%
vernier = 0.00146484
Source Step = 28.3321%
Source Step = 28.3765%
Source Step = 28.4209%
Source Step = 28.4653%
Source Step = 28.5097%
vernier = 0.00219727
Source Step = 28.5652%
Source Step = 28.6318%
Source Step = 28.6984%
Source Step = 28.7649%
Source Step = 28.8315%
vernier = 0.0032959
Source Step = 28.9114%
Source Step = 29.0113%
Source Step = 29.1112%
Source Step = 29.2111%
Source Step = 29.3109%
vernier = 0.00494385
Source Step = 29.4258%
Source Step = 29.5756%
Source Step = 29.7254%
Source Step = 29.8752%
Source Step = 30.025%
vernier = 0.00741577
Source Step = 30.1898%
Source Step = 30.4146%
Source Step = 30.6393%
Source Step = 30.864%
Source Step = 31.0887%
vernier = 0.0111237
Source Step = 31.3247%
Source Step = 31.6618%
Source Step = 31.9988%
Source Step = 32.3359%
Source Step = 32.673%
Source Step = 33.0101%
vernier = 0.0166855
Source Step = 33.5157%
Source Step = 34.0213%
Source Step = 34.5269%
Source Step = 35.0326%
Source Step = 35.5382%
vernier = 0.0250282
Source Step = 36.2713%
Source Step = 37.0298%
Source Step = 37.7882%
Source Step = 38.5466%
Source Step = 39.3051%
vernier = 0.0375423
Source Step = 40.3669%
Source Step = 41.5045%
Source Step = 42.6422%
Source Step = 43.7798%
Source Step = 44.9174%
vernier = 0.0563135
Source Step = 46.4533%
Source Step = 48.1597%
Source Step = 49.8662%
Source Step = 51.5727%
Source Step = 53.2792%
vernier = 0.0844703
Source Step = 55.4976%
Source Step = 58.0573%
Source Step = 60.617%
Source Step = 63.1767%
Source Step = 65.7364%
vernier = 0.126705
Source Step = 68.936%
Source Step = 72.7756%
Source Step = 76.6151%
Source Step = 79.7828%
vernier = 0.00791909
Starting source stepping with srcstepmethod=1
Source Step = 3.0303%
Source Step = 33.3333%
Source Step = 63.6364%
Source Step = 93.9394%
Source Step = 96.9815%
Source stepping failed

Pseudo Transient failed in finding the operating point at 46.3209 ms.
Trouble finding operating point....skipping operating point for Transient analysis.
Ignoring empty pin current: Ix(u1:5)
