Circuit: * C:\Users\Vien\Documents\LTspice_Projects\Log_Current_Amp\Draft1.asc

Direct Newton iteration failed to find .op point.  (Use ".option noopiter" to skip.)
Starting Gmin stepping
Gmin = 10
Gmin = 1.07374
Gmin = 0.115292
Gmin = 0.0123794
Gmin = 0.00132923
Gmin = 0.000142725
Gmin = 1.5325e-005
vernier = 0.5
Gmin = 3.52689e-006
vernier = 0.666667
vernier = 0.888888
Gmin = 7.39785e-007
vernier = 1
vernier = 0.5
vernier = 0.25
vernier = 0.125
vernier = 0.0625
vernier = 0.03125
Gmin = 3.31516e-007
vernier = 0.015625
vernier = 0.0078125
vernier = 0.00390625
vernier = 0.00195313
vernier = 0.000976563
vernier = 0.000488281
Gmin = 0
Gmin stepping failed

Starting source stepping with srcstepmethod=0
Source Step = 3.0303%
Source Step = 33.3333%
Source Step = 63.6364%
Source Step = 93.9394%
Source stepping succeeded in finding the operating point.

.step cf=1e-012
.step cf=1e-011
.step cf=1e-010
.step cf=1e-009
.step cf=1e-008
.step cf=1e-007

Date: Sun Jul 11 00:58:26 2021
Total elapsed time: 0.466 seconds.

tnom = 27
temp = 27
method = trap
totiter = 1953
traniter = 0
tranpoints = 0
accept = 0
rejected = 0
matrix size = 27
fillins = 18
solver = Normal
Matrix Compiler1:     147 opcodes
Matrix Compiler2: off  [0.2]/0.3/0.2

