Circuit: * C:\Users\Vien\Documents\LTspice_Projects\Log_Current_Amp\Log_Current_Amp_Configurations_Sim.asc

.step temp=-40°C
Direct Newton iteration failed to find .op point.  (Use ".option noopiter" to skip.)
Starting Gmin stepping
Gmin = 10
Gmin = 1.07374
Gmin = 0.115292
Gmin = 0.0123794
Gmin = 0.00132923
Gmin = 0.000142725
Gmin = 1.5325e-005
Gmin = 1.6455e-006
Gmin = 1.76685e-007
Gmin = 1.89714e-008
Gmin = 2.03704e-009
Gmin = 2.18725e-010
Gmin = 2.34854e-011
Gmin = 2.52173e-012
Gmin = 2.70769e-013
Gmin = 0
Gmin stepping succeeded in finding the operating point.

.step temp=25°C
.step temp=85°C

Date: Wed Jan 20 20:01:39 2021
Total elapsed time: 0.556 seconds.

tnom = 27
temp = 85
method = trap
totiter = 10479
traniter = 0
tranpoints = 0
accept = 0
rejected = 0
matrix size = 54
fillins = 64
solver = Normal
Thread vector: 8.4/4.8[3] 0.0/0.0[0] 1.7/1.8[1] 0.1/0.5[1]  2592/500
Matrix Compiler1:     293 opcodes  0.8/0.4/[0.2]
Matrix Compiler2: 5.41 KB object code size  0.5/0.6/[0.3]

