Questionable use of curly braces in "b1 n003 0 v={v(out_log_amp)/v(vn)}"
    Error: undefined symbol in: "[v](out_log_amp)/v(vn)"
Circuit: * C:\Users\Vien\Documents\LTspice_Projects\Log_Current_Amp\Log_Current_Amp_Temperature_Compensated_Trigger.asc

WARNING: Less than two connections to node N003.  This node is used by B1.
Instance "m:u1:14": Length shorter than recommended for a level 1 MOSFET.
Instance "m:u1:12": Length shorter than recommended for a level 1 MOSFET.
WARNING: Resistance changed sign due to its tempco(s).  Resistor:u1:r74
.step temp=-40°C
Direct Newton iteration failed to find .op point.  (Use ".option noopiter" to skip.)
Starting Gmin stepping
Increasing initial diagonal Gmin to 100
Increasing initial diagonal Gmin to 1000
Increasing initial diagonal Gmin to 10000
Gmin = 10000
Gmin = 1073.74
Gmin = 115.292
Gmin = 12.3794
Gmin = 1.32923
Gmin = 0.142725
Gmin = 0.015325
Gmin = 0.0016455
Gmin = 0.000176685
Gmin = 1.89714e-005
Gmin = 2.03704e-006
Gmin = 2.18725e-007
Gmin = 2.34854e-008
Gmin = 2.52173e-009
Gmin = 2.70769e-010
Gmin = 2.90735e-011
Gmin = 3.12175e-012
Gmin = 3.35195e-013
Gmin = 0
Gmin stepping succeeded in finding the operating point.

.step temp=25°C
.step temp=85°C

Date: Thu Dec 31 16:06:40 2020
Total elapsed time: 1.290 seconds.

tnom = 27
temp = 85
method = trap
totiter = 13133
traniter = 0
tranpoints = 0
accept = 0
rejected = 0
matrix size = 90
fillins = 64
solver = Normal
Thread vector: 9.3/4.5[4] 0.0/0.0[0] 3.0/1.5[4] 0.2/0.4[1]  2592/500
Matrix Compiler1:     419 opcodes  1.7/0.7/[0.4]
Matrix Compiler2: 8.24 KB object code size  0.6/0.9/[0.4]

