Circuit: * C:\Users\Vien\Documents\LTspice_Projects\Log_Current_Amp\MMDL914T1_Reverse_Current_Characteristics.asc

.step temp=25°C
.step temp=55°C
.step temp=85°C
.step temp=125°C
.step temp=150°C

Date: Fri Sep 18 11:43:09 2020
Total elapsed time: 0.204 seconds.

tnom = 27
temp = 150
method = Gear
totiter = 9004
traniter = 0
tranpoints = 0
accept = 0
rejected = 0
matrix size = 4
fillins = 0
solver = Normal
Matrix Compiler1: 136 bytes object code size  0.0/0.0/[0.0]
Matrix Compiler2: off  [0.0]/0.1/0.0

