Circuit: * D:\LTspice\test_ltspice_model_imported_orcad\LTspice_NTC_TFPT_PTS_model- june2019\ltspice_ntc_tfpt_pts_model\simulation_LT_therm_Vishay.asc

.step run=1
.step run=2
.step run=3
.step run=4
.step run=5
.step run=6
.step run=7
.step run=8
.step run=9
.step run=10
.step run=11
.step run=12
.step run=13
.step run=14
.step run=15
.step run=16
.step run=17
.step run=18
.step run=19
.step run=20
.step run=21
.step run=22
.step run=23
.step run=24
.step run=25
.step run=26
.step run=27
.step run=28
.step run=29
.step run=30
.step run=31
.step run=32
.step run=33
.step run=34
.step run=35
.step run=36
.step run=37
.step run=38
.step run=39
.step run=40
.step run=41
.step run=42
.step run=43
.step run=44
.step run=45
.step run=46
.step run=47
.step run=48
.step run=49
.step run=50
.step run=51
.step run=52
.step run=53
.step run=54
.step run=55
.step run=56
.step run=57
.step run=58
.step run=59
.step run=60
.step run=61
.step run=62
.step run=63
.step run=64
.step run=65
.step run=66
.step run=67
.step run=68
.step run=69
.step run=70
.step run=71
.step run=72
.step run=73
.step run=74
.step run=75
.step run=76
.step run=77
.step run=78
.step run=79
.step run=80
.step run=81
.step run=82
.step run=83
.step run=84
.step run=85
.step run=86
.step run=87
.step run=88
.step run=89
.step run=90
.step run=91
.step run=92
.step run=93
.step run=94
.step run=95
.step run=96
.step run=97
.step run=98
.step run=99
.step run=100


Measurement: rt1
  step	-v(tfpt)/i(v1)	at
     1	7146.24	-55
     2	7201.63	-55
     3	6717.9	-55
     4	7054.61	-55
     5	7061.33	-55
     6	6926.95	-55
     7	6908.33	-55
     8	6821.26	-55
     9	7250.29	-55
    10	6870.68	-55
    11	6791.49	-55
    12	7136.81	-55
    13	7033.26	-55
    14	6966.15	-55
    15	6814.58	-55
    16	6964.95	-55
    17	7047.61	-55
    18	6932.84	-55
    19	7178.7	-55
    20	7047.39	-55
    21	7024.39	-55
    22	6890.24	-55
    23	6784.71	-55
    24	6942.69	-55
    25	6969.93	-55
    26	7006.6	-55
    27	6774.12	-55
    28	6868.67	-55
    29	7237.68	-55
    30	7181.48	-55
    31	6702.72	-55
    32	6751.11	-55
    33	6783.32	-55
    34	6857.82	-55
    35	7277.64	-55
    36	7248.17	-55
    37	6925.24	-55
    38	7128.95	-55
    39	6991.19	-55
    40	7158.81	-55
    41	7252.47	-55
    42	6945.04	-55
    43	7141.41	-55
    44	7139.6	-55
    45	7029.64	-55
    46	7204.4	-55
    47	7216.96	-55
    48	7012.71	-55
    49	7322.34	-55
    50	6722.36	-55
    51	7166.1	-55
    52	6861.38	-55
    53	6947.91	-55
    54	7061.4	-55
    55	7029.41	-55
    56	7160	-55
    57	6901.27	-55
    58	6855.9	-55
    59	7122.82	-55
    60	7112.14	-55
    61	6893.4	-55
    62	7083.05	-55
    63	6865.05	-55
    64	6915.9	-55
    65	6853.58	-55
    66	7116.14	-55
    67	6838.93	-55
    68	6979.18	-55
    69	6758.1	-55
    70	7226.16	-55
    71	7214.02	-55
    72	7276.13	-55
    73	7293.81	-55
    74	7192.23	-55
    75	6901.63	-55
    76	7152.15	-55
    77	7072.45	-55
    78	7153.55	-55
    79	6786.81	-55
    80	7107.29	-55
    81	6850.39	-55
    82	7235.61	-55
    83	7086.65	-55
    84	6814.09	-55
    85	7319.56	-55
    86	7049.05	-55
    87	6982.76	-55
    88	6924.91	-55
    89	6894.96	-55
    90	7011.38	-55
    91	7190.59	-55
    92	7274.97	-55
    93	7152.2	-55
    94	7191.38	-55
    95	6965.13	-55
    96	7184.77	-55
    97	7274.03	-55
    98	6985.23	-55
    99	6721.5	-55
   100	6908.06	-55

Measurement: rt2
  step	-v(tfpt)/i(v1)	at
     1	9938.83	25
     2	10064.7	25
     3	9960.97	25
     4	10097.9	25
     5	10006.5	25
     6	9990.33	25
     7	10004.1	25
     8	10008	25
     9	10056.1	25
    10	9953.41	25
    11	10035.6	25
    12	10017.8	25
    13	10048.9	25
    14	10020	25
    15	9930.48	25
    16	10050.5	25
    17	10040.1	25
    18	10038.8	25
    19	9930.82	25
    20	10063.6	25
    21	9956.09	25
    22	9924.77	25
    23	9985.42	25
    24	9994.52	25
    25	10096.8	25
    26	10068.1	25
    27	10014.7	25
    28	10031.7	25
    29	9962.98	25
    30	10067.1	25
    31	9900.49	25
    32	10010.8	25
    33	10008.9	25
    34	9987.51	25
    35	10001	25
    36	9935.84	25
    37	9919.05	25
    38	9945.63	25
    39	9990.49	25
    40	10025.1	25
    41	10011.2	25
    42	10017.1	25
    43	10024.2	25
    44	10082.5	25
    45	9963.17	25
    46	10070.4	25
    47	10028.4	25
    48	9993.28	25
    49	10065.5	25
    50	9925.62	25
    51	9914.62	25
    52	9945.59	25
    53	9998.68	25
    54	10037.8	25
    55	9920.29	25
    56	9976.19	25
    57	9935.49	25
    58	9905.74	25
    59	10073	25
    60	10041.8	25
    61	9968.37	25
    62	10005.5	25
    63	9980.65	25
    64	10014.8	25
    65	10061.8	25
    66	10048.9	25
    67	9946.06	25
    68	10005.1	25
    69	9929.48	25
    70	9967.45	25
    71	10007	25
    72	10005.3	25
    73	10037	25
    74	10020.5	25
    75	9901.02	25
    76	10062.4	25
    77	9928.72	25
    78	10029.1	25
    79	9955.16	25
    80	9973.68	25
    81	10080.6	25
    82	9934.53	25
    83	9900.92	25
    84	9907.89	25
    85	10077.2	25
    86	10082	25
    87	10014.1	25
    88	9951.23	25
    89	9914.23	25
    90	10029	25
    91	9979.48	25
    92	9978.51	25
    93	10025.6	25
    94	10079.2	25
    95	10080.9	25
    96	10049.2	25
    97	10036.3	25
    98	9940.78	25
    99	9916.08	25
   100	9928.7	25

Measurement: rt3
  step	-v(tfpt)/i(v1)	at
     1	12419.8	85
     2	12608.8	85
     3	12848	85
     4	12804.3	85
     5	12624.8	85
     6	12715.3	85
     7	12758.3	85
     8	12844.2	85
     9	12548.6	85
    10	12695.9	85
    11	12923.3	85
    12	12578.1	85
    13	12730.6	85
    14	12736.2	85
    15	12703	85
    16	12795.2	85
    17	12701	85
    18	12801.8	85
    19	12375.3	85
    20	12745.7	85
    21	12562.4	85
    22	12623.9	85
    23	12834.2	85
    24	12709	85
    25	12878.5	85
    26	12791	85
    27	12899.3	85
    28	12846.3	85
    29	12383.2	85
    30	12631.5	85
    31	12746.9	85
    32	12912.7	85
    33	12879.9	85
    34	12772.2	85
    35	12419.3	85
    36	12322.2	85
    37	12581.5	85
    38	12448.3	85
    39	12657.7	85
    40	12572.2	85
    41	12461.4	85
    42	12749.7	85
    43	12586.3	85
    44	12698.4	85
    45	12571.1	85
    46	12617.1	85
    47	12526	85
    48	12643.5	85
    49	12501.4	85
    50	12776.9	85
    51	12355.9	85
    52	12689.5	85
    53	12712.2	85
    54	12684.1	85
    55	12489.9	85
    56	12478.3	85
    57	12634.3	85
    58	12618.8	85
    59	12695.6	85
    60	12645.9	85
    61	12703.8	85
    62	12603.3	85
    63	12752.7	85
    64	12771.7	85
    65	12917	85
    66	12655.9	85
    67	12710.6	85
    68	12696.2	85
    69	12752	85
    70	12402.1	85
    71	12488.1	85
    72	12428.8	85
    73	12473	85
    74	12533.3	85
    75	12568.6	85
    76	12649	85
    77	12467.1	85
    78	12584.5	85
    79	12774.9	85
    80	12521	85
    81	12955.7	85
    82	12331	85
    83	12401.6	85
    84	12660.5	85
    85	12526.2	85
    86	12779.2	85
    87	12710	85
    88	12642.9	85
    89	12599.7	85
    90	12712.6	85
    91	12456.9	85
    92	12379	85
    93	12579.2	85
    94	12645.6	85
    95	12852.8	85
    96	12594.6	85
    97	12489.5	85
    98	12568.7	85
    99	12759.6	85
   100	12615.3	85

Measurement: rt4
  step	-v(tfpt)/i(v1)	at
     1	15461.3	150
     2	15737.1	150
     3	16505.7	150
     4	16177	150
     5	15870.2	150
     6	16124.1	150
     7	16210.5	150
     8	16420.9	150
     9	15598.9	150
    10	16134.3	150
    11	16576.6	150
    12	15734.5	150
    13	16069.4	150
    14	16129.6	150
    15	16188.7	150
    16	16229.6	150
    17	16008.7	150
    18	16265.2	150
    19	15361.9	150
    20	16084.1	150
    21	15793.4	150
    22	15998.4	150
    23	16431.8	150
    24	16101.7	150
    25	16366	150
    26	16191	150
    27	16549.3	150
    28	16388.6	150
    29	15330.5	150
    30	15790.4	150
    31	16347.3	150
    32	16589.3	150
    33	16509.8	150
    34	16272.3	150
    35	15360.9	150
    36	15220	150
    37	15900.6	150
    38	15522.3	150
    39	15978.6	150
    40	15708	150
    41	15450.7	150
    42	16168.4	150
    43	15744.8	150
    44	15934.7	150
    45	15804	150
    46	15748.9	150
    47	15586.2	150
    48	15938.6	150
    49	15465.1	150
    50	16382.8	150
    51	15338.9	150
    52	16130.5	150
    53	16103.1	150
    54	15969.9	150
    55	15667.7	150
    56	15549.2	150
    57	16007.5	150
    58	16015.8	150
    59	15942.7	150
    60	15867.2	150
    61	16130.3	150
    62	15817.6	150
    63	16234	150
    64	16227.4	150
    65	16518.9	150
    66	15881	150
    67	16183	150
    68	16052.5	150
    69	16313.9	150
    70	15370.9	150
    71	15524.7	150
    72	15378	150
    73	15438.9	150
    74	15617.2	150
    75	15896.8	150
    76	15842	150
    77	15596.8	150
    78	15732.6	150
    79	16330.5	150
    80	15661	150
    81	16586.3	150
    82	15244.4	150
    83	15475.8	150
    84	16117.7	150
    85	15508.8	150
    86	16139	150
    87	16073	150
    88	16004	150
    89	15954.1	150
    90	16055.7	150
    91	15490.1	150
    92	15295.2	150
    93	15724.7	150
    94	15806.6	150
    95	16326.4	150
    96	15725.9	150
    97	15481.6	150
    98	15833.6	150
    99	16354.3	150
   100	15970.5	150

Measurement: rn1
  step	-v(ntc)/i(v3)	at
     1	622204	-55
     2	655593	-55
     3	575076	-55
     4	527575	-55
     5	643196	-55
     6	608591	-55
     7	680500	-55
     8	578504	-55
     9	736576	-55
    10	569808	-55
    11	654011	-55
    12	677953	-55
    13	690075	-55
    14	651971	-55
    15	663333	-55
    16	623332	-55
    17	668630	-55
    18	553370	-55
    19	653124	-55
    20	599266	-55
    21	672636	-55
    22	571110	-55
    23	719164	-55
    24	613113	-55
    25	645538	-55
    26	683000	-55
    27	576604	-55
    28	584147	-55
    29	582674	-55
    30	665793	-55
    31	697340	-55
    32	589417	-55
    33	572281	-55
    34	629931	-55
    35	702306	-55
    36	698438	-55
    37	578368	-55
    38	570787	-55
    39	647348	-55
    40	605116	-55
    41	559313	-55
    42	558538	-55
    43	585751	-55
    44	566334	-55
    45	560838	-55
    46	573526	-55
    47	614908	-55
    48	572844	-55
    49	680050	-55
    50	641605	-55
    51	602452	-55
    52	654320	-55
    53	666549	-55
    54	610576	-55
    55	641214	-55
    56	601644	-55
    57	634284	-55
    58	613288	-55
    59	691846	-55
    60	541126	-55
    61	636716	-55
    62	705122	-55
    63	652441	-55
    64	582087	-55
    65	651528	-55
    66	667889	-55
    67	702102	-55
    68	560416	-55
    69	582930	-55
    70	603623	-55
    71	616229	-55
    72	575645	-55
    73	678543	-55
    74	571851	-55
    75	618142	-55
    76	681102	-55
    77	679323	-55
    78	602039	-55
    79	669514	-55
    80	553378	-55
    81	635766	-55
    82	698350	-55
    83	582209	-55
    84	564387	-55
    85	644279	-55
    86	672975	-55
    87	654050	-55
    88	544546	-55
    89	562599	-55
    90	657886	-55
    91	580898	-55
    92	662357	-55
    93	561494	-55
    94	699559	-55
    95	623913	-55
    96	580640	-55
    97	614528	-55
    98	620129	-55
    99	569939	-55
   100	619634	-55

Measurement: rn2
  step	-v(ntc)/i(v3)	at
     1	10088.6	25
     2	9677.73	25
     3	9594.79	25
     4	9622.33	25
     5	10105.4	25
     6	9560.51	25
     7	10379.8	25
     8	9965.54	25
     9	10500.8	25
    10	10343.6	25
    11	9512.37	25
    12	10341.4	25
    13	9961.73	25
    14	10238.7	25
    15	9928.85	25
    16	9672.52	25
    17	9651.15	25
    18	9929.93	25
    19	10325.4	25
    20	9659.02	25
    21	10186	25
    22	10338.2	25
    23	10453.3	25
    24	10350.6	25
    25	10242.9	25
    26	10004.7	25
    27	10034.8	25
    28	10345.7	25
    29	9789.52	25
    30	10104	25
    31	10310.1	25
    32	9617.2	25
    33	9940.16	25
    34	10081.5	25
    35	10199.6	25
    36	9961.23	25
    37	10435.1	25
    38	9914.15	25
    39	10101.5	25
    40	10069.3	25
    41	9746.23	25
    42	9997.86	25
    43	10308.1	25
    44	10231.1	25
    45	9809.2	25
    46	9658.27	25
    47	10048.7	25
    48	9656.04	25
    49	10377.2	25
    50	10288.7	25
    51	10157.4	25
    52	10423.7	25
    53	10000.5	25
    54	10109.9	25
    55	10367	25
    56	10056.4	25
    57	9635.18	25
    58	9559.39	25
    59	10225.5	25
    60	9720.87	25
    61	9871.17	25
    62	10302.1	25
    63	9640.15	25
    64	10051.5	25
    65	9787.88	25
    66	9864.82	25
    67	10046.2	25
    68	9598.01	25
    69	10435.2	25
    70	9902.12	25
    71	10197.1	25
    72	9902.13	25
    73	9939.23	25
    74	10080.1	25
    75	9585.75	25
    76	10195.3	25
    77	10231.7	25
    78	9588.91	25
    79	10485.6	25
    80	9721.98	25
    81	10406.3	25
    82	10279.7	25
    83	9617.46	25
    84	9692.64	25
    85	9699.25	25
    86	10425.1	25
    87	10446.8	25
    88	9853.6	25
    89	10094.2	25
    90	10108	25
    91	10095.7	25
    92	9688.95	25
    93	9552.96	25
    94	10232.3	25
    95	9891.68	25
    96	10242.9	25
    97	9871.39	25
    98	10158.4	25
    99	9531.16	25
   100	9571.35	25

Measurement: rn3
  step	-v(ntc)/i(v3)	at
     1	1422.62	85
     2	1305.12	85
     3	1371.48	85
     4	1434.92	85
     5	1403.8	85
     6	1328.02	85
     7	1421.77	85
     8	1446.3	85
     9	1392.86	85
    10	1539.03	85
    11	1273.82	85
    12	1416.55	85
    13	1329.24	85
    14	1422.01	85
    15	1347.86	85
    16	1335.75	85
    17	1287.73	85
    18	1469.38	85
    19	1438.61	85
    20	1358.19	85
    21	1390.44	85
    22	1536.16	85
    23	1399.4	85
    24	1487.84	85
    25	1429.59	85
    26	1344.27	85
    27	1463.44	85
    28	1521.4	85
    29	1403.96	85
    30	1380.65	85
    31	1391.44	85
    32	1360.19	85
    33	1448.29	85
    34	1412.82	85
    35	1364.89	85
    36	1321.55	85
    37	1548.12	85
    38	1444.5	85
    39	1398.71	85
    40	1437.51	85
    41	1422.21	85
    42	1477.69	85
    43	1511.27	85
    44	1518.8	85
    45	1433.93	85
    46	1386.67	85
    47	1422.27	85
    48	1386.98	85
    49	1421.69	85
    50	1443.21	85
    51	1459.16	85
    52	1457.59	85
    53	1359.11	85
    54	1439.89	85
    55	1459.87	85
    56	1438.71	85
    57	1317.2	85
    58	1322.94	85
    59	1379.8	85
    60	1439.19	85
    61	1362.59	85
    62	1382.53	85
    63	1300.63	85
    64	1460.46	85
    65	1331.03	85
    66	1330.72	85
    67	1334.9	85
    68	1389.11	85
    69	1542.38	85
    70	1404.08	85
    71	1451.9	85
    72	1436.12	85
    73	1335.47	85
    74	1479.01	85
    75	1323.36	85
    76	1384.06	85
    77	1393.09	85
    78	1340.72	85
    79	1454.42	85
    80	1424.2	85
    81	1474.03	85
    82	1384.45	85
    83	1368.23	85
    84	1404.64	85
    85	1320.29	85
    86	1438.52	85
    87	1462.64	85
    88	1463.89	85
    89	1493.59	85
    90	1389.33	85
    91	1471.36	85
    92	1300.99	85
    93	1378.24	85
    94	1373.9	85
    95	1380.03	85
    96	1503.45	85
    97	1385.81	85
    98	1439.45	85
    99	1363.89	85
   100	1318.91	85

Measurement: rn4
  step	-v(ntc)/i(v3)	at
     1	317.692	150
     2	281.672	150
     3	309.474	150
     4	334.45	150
     5	309.916	150
     6	293.172	150
     7	310.523	150
     8	330.172	150
     9	296.82	150
    10	358.099	150
    11	273.439	150
    12	309.387	150
    13	284.555	150
    14	313.886	150
    15	292.367	150
    16	293.565	150
    17	275.659	150
    18	340.462	150
    19	318.319	150
    20	302.647	150
    21	302.884	150
    22	357.067	150
    23	300.324	150
    24	337.169	150
    25	316.745	150
    26	289.305	150
    27	335.328	150
    28	350.837	150
    29	317.606	150
    30	300.985	150
    31	300.472	150
    32	304.447	150
    33	331.623	150
    34	314.01	150
    35	292.828	150
    36	281.667	150
    37	359.416	150
    38	330.753	150
    39	308.027	150
    40	324.059	150
    41	326.033	150
    42	342.079	150
    43	347.693	150
    44	352.775	150
    45	329.165	150
    46	313.96	150
    47	318.519	150
    48	314.141	150
    49	310.551	150
    50	320.996	150
    51	330.515	150
    52	323.419	150
    53	295.061	150
    54	324.012	150
    55	325.669	150
    56	324.857	150
    57	287.255	150
    58	291.224	150
    59	297.922	150
    60	333.601	150
    61	299.364	150
    62	297.26	150
    63	280.797	150
    64	333.697	150
    65	289.102	150
    66	287.254	150
    67	284.849	150
    68	316.448	150
    69	357.063	150
    70	314.885	150
    71	326.639	150
    72	327.678	150
    73	287.41	150
    74	340.477	150
    75	290.773	150
    76	300.224	150
    77	302.863	150
    78	297.465	150
    79	320.72	150
    80	327.46	150
    81	330.305	150
    82	298.483	150
    83	307.621	150
    84	320.307	150
    85	286.988	150
    86	315.955	150
    87	324.848	150
    88	340.222	150
    89	346.054	150
    90	304.241	150
    91	336.977	150
    92	279.853	150
    93	313.216	150
    94	295.526	150
    95	305.675	150
    96	346.2	150
    97	308.42	150
    98	322.651	150
    99	308.02	150
   100	289.384	150

Measurement: rp1
  step	-v(pts)/i(v2)	at
     1	781.092	-55
     2	784.213	-55
     3	784.26	-55
     4	780.049	-55
     5	780.316	-55
     6	782.315	-55
     7	785.872	-55
     8	787.234	-55
     9	783.654	-55
    10	783.257	-55
    11	780.82	-55
    12	781.131	-55
    13	781.834	-55
    14	782.648	-55
    15	782.934	-55
    16	785.421	-55
    17	781.247	-55
    18	783.257	-55
    19	786.224	-55
    20	780.312	-55
    21	783.89	-55
    22	784.147	-55
    23	783.99	-55
    24	782.758	-55
    25	781.988	-55
    26	782.888	-55
    27	783.104	-55
    28	785.388	-55
    29	782.397	-55
    30	782.498	-55
    31	780.459	-55
    32	780.131	-55
    33	785.214	-55
    34	783.215	-55
    35	782.323	-55
    36	780.997	-55
    37	781.822	-55
    38	784.16	-55
    39	784.263	-55
    40	786.328	-55
    41	782.729	-55
    42	784.564	-55
    43	784.835	-55
    44	785.168	-55
    45	786.081	-55
    46	782.942	-55
    47	779.334	-55
    48	781.88	-55
    49	783.517	-55
    50	784.184	-55
    51	785.715	-55
    52	781.331	-55
    53	782.286	-55
    54	782.725	-55
    55	781.746	-55
    56	784.363	-55
    57	785.943	-55
    58	785.842	-55
    59	782.956	-55
    60	779.243	-55
    61	782.158	-55
    62	785.982	-55
    63	782.069	-55
    64	780.808	-55
    65	780.591	-55
    66	786.349	-55
    67	783.49	-55
    68	779.233	-55
    69	783.895	-55
    70	779.101	-55
    71	786.8	-55
    72	779.876	-55
    73	782.532	-55
    74	782.772	-55
    75	781.358	-55
    76	782.986	-55
    77	784.152	-55
    78	782.57	-55
    79	783.403	-55
    80	784.052	-55
    81	782.051	-55
    82	782.425	-55
    83	781.624	-55
    84	784.449	-55
    85	782.068	-55
    86	784.576	-55
    87	782.125	-55
    88	783.73	-55
    89	783.277	-55
    90	780.246	-55
    91	783.722	-55
    92	786.986	-55
    93	783.297	-55
    94	781.646	-55
    95	782.238	-55
    96	783.519	-55
    97	780.769	-55
    98	783.114	-55
    99	782.299	-55
   100	783.138	-55

Measurement: rp2
  step	-v(pts)/i(v2)	at
     1	997.667	0
     2	999.305	0
     3	1000.99	0
     4	998.352	0
     5	997.703	0
     6	998.441	0
     7	1001.34	0
     8	1002.14	0
     9	1001.71	0
    10	1000.53	0
    11	999.424	0
    12	998.956	0
    13	999.936	0
    14	1001.15	0
    15	1000.35	0
    16	1000.09	0
    17	999.969	0
    18	998.326	0
    19	1002.19	0
    20	998.559	0
    21	1001.09	0
    22	1001.05	0
    23	1000.09	0
    24	1000.24	0
    25	999.801	0
    26	998.581	0
    27	997.79	0
    28	1001.62	0
    29	998.177	0
    30	998.32	0
    31	998.847	0
    32	998.649	0
    33	1001.19	0
    34	1000.93	0
    35	1000.61	0
    36	998.552	0
    37	998.119	0
    38	1001.86	0
    39	1000.61	0
    40	1001.67	0
    41	998.526	0
    42	1000.5	0
    43	1001.14	0
    44	1000.36	0
    45	1000.79	0
    46	998.171	0
    47	998.034	0
    48	999.58	0
    49	1001.12	0
    50	999.069	0
    51	1000.52	0
    52	998.153	0
    53	1000.77	0
    54	1000.05	0
    55	997.689	0
    56	1001.17	0
    57	1002.14	0
    58	1002.13	0
    59	998.279	0
    60	997.73	0
    61	998.454	0
    62	1001.42	0
    63	998.341	0
    64	997.972	0
    65	999.122	0
    66	1001.86	0
    67	998.733	0
    68	997.914	0
    69	1001.84	0
    70	997.882	0
    71	1002.1	0
    72	998.877	0
    73	1000.41	0
    74	997.695	0
    75	998.704	0
    76	1001.67	0
    77	1000.15	0
    78	997.807	0
    79	1002.11	0
    80	999.032	0
    81	998.79	0
    82	998.037	0
    83	998.65	0
    84	999.121	0
    85	998.382	0
    86	1000.69	0
    87	998.369	0
    88	1000.38	0
    89	1001.39	0
    90	998.589	0
    91	999.731	0
    92	1002.11	0
    93	1000.36	0
    94	998.882	0
    95	999.508	0
    96	999.32	0
    97	998.6	0
    98	998.175	0
    99	1000.89	0
   100	999.103	0

Measurement: rp3
  step	-v(pts)/i(v2)	at
     1	1326.17	85
     2	1329.92	85
     3	1329.09	85
     4	1324.26	85
     5	1325.01	85
     6	1327.57	85
     7	1331.3	85
     8	1332.88	85
     9	1327.82	85
    10	1327.86	85
    11	1324.84	85
    12	1325.55	85
    13	1326.06	85
    14	1326.62	85
    15	1327.48	85
    16	1331.29	85
    17	1325.18	85
    18	1329.03	85
    19	1331.36	85
    20	1324.54	85
    21	1328.49	85
    22	1328.9	85
    23	1329.18	85
    24	1327.27	85
    25	1326.36	85
    26	1328.34	85
    27	1329.09	85
    28	1330.43	85
    29	1327.83	85
    30	1327.91	85
    31	1324.61	85
    32	1324.23	85
    33	1330.4	85
    34	1327.58	85
    35	1326.43	85
    36	1325.56	85
    37	1327.01	85
    38	1328.49	85
    39	1329.3	85
    40	1331.79	85
    41	1328.14	85
    42	1329.81	85
    43	1329.87	85
    44	1330.77	85
    45	1331.9	85
    46	1328.64	85
    47	1323.38	85
    48	1326.32	85
    49	1327.92	85
    50	1330	85
    51	1331.5	85
    52	1326.27	85
    53	1326.29	85
    54	1327.32	85
    55	1327.13	85
    56	1329.15	85
    57	1330.97	85
    58	1330.83	85
    59	1328.61	85
    60	1323.4	85
    61	1327.33	85
    62	1331.41	85
    63	1327.26	85
    64	1325.59	85
    65	1324.66	85
    66	1331.72	85
    67	1329.16	85
    68	1323.29	85
    69	1328.1	85
    70	1323.11	85
    71	1332.27	85
    72	1323.73	85
    73	1326.85	85
    74	1328.65	85
    75	1326.01	85
    76	1326.85	85
    77	1329.38	85
    78	1328.29	85
    79	1327.23	85
    80	1329.83	85
    81	1326.99	85
    82	1327.95	85
    83	1326.44	85
    84	1330.37	85
    85	1327.24	85
    86	1329.72	85
    87	1327.33	85
    88	1328.64	85
    89	1327.43	85
    90	1324.43	85
    91	1328.97	85
    92	1332.53	85
    93	1328.01	85
    94	1326.35	85
    95	1326.89	85
    96	1328.89	85
    97	1325.2	85
    98	1328.9	85
    99	1326.25	85
   100	1328.44	85

Measurement: rp4
  step	-v(pts)/i(v2)	at
     1	1571.74	150
     2	1577.02	150
     3	1574.35	150
     4	1567.93	150
     5	1569.69	150
     6	1573.59	150
     7	1577.92	150
     8	1580.07	150
     9	1571.63	150
    10	1572.55	150
    11	1568.14	150
    12	1569.71	150
    13	1569.89	150
    14	1569.97	150
    15	1572.03	150
    16	1578.83	150
    17	1568.33	150
    18	1576.19	150
    19	1577.4	150
    20	1568.27	150
    21	1573.24	150
    22	1573.98	150
    23	1575.16	150
    24	1571.76	150
    25	1570.51	150
    26	1574.82	150
    27	1576.68	150
    28	1576.22	150
    29	1574.24	150
    30	1574.26	150
    31	1568.17	150
    32	1567.65	150
    33	1576.48	150
    34	1571.79	150
    35	1570.03	150
    36	1570.03	150
    37	1572.86	150
    38	1572.68	150
    39	1575	150
    40	1578.53	150
    41	1574.51	150
    42	1575.95	150
    43	1575.59	150
    44	1577.72	150
    45	1579.35	150
    46	1575.64	150
    47	1566.63	150
    48	1570.6	150
    49	1572.24	150
    50	1577.34	150
    51	1578.86	150
    52	1571.54	150
    53	1569.67	150
    54	1571.98	150
    55	1573.37	150
    56	1574.33	150
    57	1576.77	150
    58	1576.54	150
    59	1575.5	150
    60	1566.9	150
    61	1573.17	150
    62	1578.05	150
    63	1573.13	150
    64	1570.51	150
    65	1568.05	150
    66	1578.28	150
    67	1576.12	150
    68	1566.57	150
    69	1572.02	150
    70	1566.28	150
    71	1579.04	150
    72	1566.62	150
    73	1570.9	150
    74	1575.99	150
    75	1570.7	150
    76	1569.97	150
    77	1575.47	150
    78	1575.29	150
    79	1570.32	150
    80	1577.06	150
    81	1572.34	150
    82	1574.54	150
    83	1571.48	150
    84	1577.93	150
    85	1573.05	150
    86	1575.67	150
    87	1573.22	150
    88	1574.02	150
    89	1571.18	150
    90	1568.05	150
    91	1575.06	150
    92	1579.49	150
    93	1572.94	150
    94	1571.15	150
    95	1571.63	150
    96	1575.22	150
    97	1569.37	150
    98	1576.07	150
    99	1569.51	150
   100	1574.61	150


Date: Thu Jun 20 15:24:03 2019
Total elapsed time: 29.563 seconds.

tnom = 27
temp = 151
method = trap
totiter = 478
traniter = 0
tranpoints = 0
accept = 0
rejected = 0
matrix size = 28
fillins = 4
Matrix Compiler1: 1.17 KB object code size  0.5/0.3/[0.1]
Matrix Compiler2: 1.99 KB object code size  0.4/0.6/[0.4]


