Circuit: * C:\Users\Vien\Documents\LTspice_Projects\Log_Current_Amp\Temp_Compensated_Log_Amp_with_Bias.asc

WARNING: Less than two connections to node N003.  This node is used by E1.
WARNING: Less than two connections to node NC_01.  This node is used by V2.
.step temp=-25°C
Direct Newton iteration failed to find .op point.  (Use ".option noopiter" to skip.)
Starting Gmin stepping
Gmin = 10
Gmin = 1.07374
Gmin = 0.115292
Gmin = 0.0123794
Gmin = 0.00132923
Gmin = 0.000142725
Gmin = 1.5325e-005
Gmin = 1.6455e-006
vernier = 0.5
vernier = 0.25
vernier = 0.125
vernier = 0.0625
vernier = 0.03125
vernier = 0.015625
Gmin = 8.42498e-007
vernier = 0.0078125
vernier = 0.00390625
vernier = 0.00520833
Gmin = 8.3513e-007
vernier = 0.00694444
vernier = 0.00925925
Gmin = 8.21362e-007
vernier = 0.0123457
Gmin = 7.99507e-007
vernier = 0.0164609
vernier = 0.0219478
Gmin = 7.64985e-007
vernier = 0.0292638
vernier = 0.0390184
Gmin = 7.13368e-007
vernier = 0.0520245
Gmin = 6.37051e-007
vernier = 0.0693659
vernier = 0.0924879
Gmin = 5.29638e-007
vernier = 0.123317
vernier = 0.164423
Gmin = 3.95897e-007
vernier = 0.21923
Gmin = 2.4788e-007
vernier = 0.292307
vernier = 0.389743
Gmin = 1.16452e-007
vernier = 0.519657
vernier = 0.692876
Gmin = 3.60875e-008
vernier = 0.346438
vernier = 0.173219
vernier = 0.230959
Gmin = 2.98008e-008
vernier = 0.307945
Gmin = 1.5534e-008
vernier = 0.410593
vernier = 0.547457
Gmin = 5.46167e-009
vernier = 0.729942
vernier = 0.973256
Gmin = 1.09356e-009
vernier = 1
Gmin = 1.20612e-010
Gmin = 1.29506e-011
Gmin = 1.39056e-012
Gmin = 1.4931e-013
Gmin = 0
Gmin stepping succeeded in finding the operating point.

.step temp=25°C
.step temp=85°C

Date: Tue Aug 24 21:16:42 2021
Total elapsed time: 0.493 seconds.

tnom = 27
temp = 85
method = trap
totiter = 3247
traniter = 0
tranpoints = 0
accept = 0
rejected = 0
matrix size = 75
fillins = 212
solver = Normal
Thread vector: 12.4/8.4[7] 0.0/0.0[0] 2.9/1.8[6] 0.9/0.6[2]  2592/500
Matrix Compiler1:     920 opcodes  2.3/0.9/[0.5]
Matrix Compiler2: 10.51 KB object code size  0.9/1.0/[0.5]

