Circuit: * C:\Users\Vien\Documents\LTspice_Projects\Log_Current_Amp\Temp_Compensated_Log_Amp_Time_Domain.asc

WARNING: Less than two connections to node N002.  This node is used by E1.
WARNING: Less than two connections to node NC_01.  This node is used by R8.
Direct Newton iteration failed to find .op point.  (Use ".option noopiter" to skip.)
Starting Gmin stepping
Gmin = 10
Gmin = 1.07374
Gmin = 0.115292
Gmin = 0.0123794
Gmin = 0.00132923
Gmin = 0.000142725
Gmin = 1.5325e-005
Gmin = 1.6455e-006
Gmin = 1.76685e-007
Gmin = 1.89714e-008
Gmin = 2.03704e-009
Gmin = 2.18725e-010
Gmin = 2.34854e-011
Gmin = 2.52173e-012
Gmin = 2.70769e-013
Gmin = 0
Gmin stepping succeeded in finding the operating point.

.step temp=-55°C
.step temp=25°C
.step temp=85°C

Date: Sun Jan 24 23:30:48 2021
Total elapsed time: 0.394 seconds.

tnom = 27
temp = 85
method = modified trap
totiter = 4841
traniter = 4428
tranpoints = 2107
accept = 1840
rejected = 267
matrix size = 48
fillins = 58
solver = Normal
Thread vector: 7.3/5.7[3] 3.2/2.7[3] 1.3/1.1[2] 0.1/0.5[1]  2592/500
Matrix Compiler1: 4.70 KB object code size  0.8/0.4/[0.3]
Matrix Compiler2: 4.78 KB object code size  0.4/0.6/[0.4]

