Circuit: * Library of Vishay NTC Thermistors for LTspice XVII

Fatal Error: No analysis request found.
