Circuit: * Library of Vishay NTC Thermistors

Fatal Error: No analysis request found.
