Circuit: * C:\Users\Vien\Documents\LTspice_Projects\1p75GHz_Pulse_Shaping_Filter\1p75GHz_9th_Order_Bessel_Pulse_Shaping_Filter.asc

Vs1: Removing PWL point (1.14286e-009,1)
Vs1: Removing PWL point (2.85714e-009,-1)
Vs1: Removing PWL point (8.57143e-009,1)
Vs1: Removing PWL point (1.02857e-008,-1)
Vs1: Removing PWL point (2.28571e-008,-1)
Vs1: Removing PWL point (2.74286e-008,1)
Vs1: Removing PWL point (2.97143e-008,-1)
Vs1: Removing PWL point (3.42857e-008,1)
Vs1: Removing PWL point (3.88571e-008,-1)
Vs1: Removing PWL point (4.05714e-008,1)
Vs: Removing PWL point (1.14286e-009,1)
Vs: Removing PWL point (2.85714e-009,-1)
Vs: Removing PWL point (8.57143e-009,1)
Vs: Removing PWL point (1.02857e-008,-1)
Vs: Removing PWL point (2.28571e-008,-1)
Vs: Removing PWL point (2.74286e-008,1)
Vs: Removing PWL point (2.97143e-008,-1)
Vs: Removing PWL point (3.42857e-008,1)
Vs: Removing PWL point (3.88571e-008,-1)
Vs: Removing PWL point (4.05714e-008,1)
WARNING: Node N008 is floating.
WARNING: Node N010 is floating.
WARNING: Node N009 is floating.
WARNING: Node N011 is floating.

Direct Newton iteration for .op point succeeded.

Date: Wed Nov 16 23:52:56 2022
Total elapsed time: 0.249 seconds.

tnom = 27
temp = 27
method = modified trap
totiter = 4821
traniter = 4818
tranpoints = 2410
accept = 2003
rejected = 407
matrix size = 17
fillins = 18
solver = Normal
Matrix Compiler1: 1.80 KB object code size  0.2/0.1/[0.1]
Matrix Compiler2: 1.61 KB object code size  0.1/0.2/[0.1]

