Circuit: * C:\Users\Vien\Documents\LTspice_Projects\1p75GHz_Pulse_Shaping_Filter\Draft1.asc


Date: Mon Sep 06 16:37:31 2021
Total elapsed time: 0.104 seconds.

tnom = 27
temp = 27
method = trap
totiter = 0
traniter = 0
tranpoints = 0
accept = 0
rejected = 0
matrix size = 25
fillins = 1
solver = Normal

